version 2
run General-0-20190606-15:35:05-13096
attr configname General
attr datetime 20190606-15:35:05
attr experiment General
attr inifile omnetpp.ini
attr iterationvars ""
attr iterationvarsf ""
attr measurement ""
attr network Ieee802154Showcasem
attr processid 13096
attr repetition 0
attr replication #0
attr resultdir results
attr runnumber 0
attr seedset 0
param **.arp.typename "\"GlobalArp\""
param **.netmaskRoutes "\"\""
param *.radioMedium.backgroundNoise.power -110dBm
param *.configurator.config "xmldoc(\"startopology.xml\")"
param *.configurator.addStaticRoutes false
param *.sensor*.numApps 1
param *.sensor*.app[*].typename "\"UdpBasicApp\""
param *.sensor*.app[*].destAddresses "\"CusterHead\""
param *.sensor*.app[*].destPort 1000
param *.sensor*.app[*].sendInterval 1s
param *.sensor*.app[*].startTime uniform(0s,1s)
param *.sensor*.app[*].messageLength 10Byte
param *.sensor*.app[*].packetName "\"SensorData\""
param *.CusterHead.app[1].typename "\"UdpSink\""
param *.CusterHead.app[1].localPort 1000
param *.visualizer.*.routingTableVisualizer[0].displayRoutingTables false
param *.visualizer.*.routingTableVisualizer[0].displayRoutesIndividually false
param *.visualizer.*.routingTableVisualizer[0].lineShift 0
param *.visualizer.*.routingTableVisualizer[0].displayLabels true
param *.visualizer.*.interfaceTableVisualizer[0].displayInterfaceTables false
param *.visualizer.*.numDataLinkVisualizers 2
param *.visualizer.*.dataLinkVisualizer[*].displayLinks true
param *.visualizer.*.dataLinkVisualizer[0].nodeFilter "\"sensor* or CusterHead\""
param *.visualizer.*.dataLinkVisualizer[1].*Color "\"blue\""
param *.visualizer.*.dataLinkVisualizer[1].nodeFilter "\"drone* or CusterHead\""
param *.visualizer.*.numStatisticVisualizers 2
param *.visualizer.*.statisticVisualizer[*].zIndex 1
param *.visualizer.*.statisticVisualizer[0].displayStatistics true
param *.visualizer.*.statisticVisualizer[0].signalName "\"packetSent\""
param *.visualizer.*.statisticVisualizer[0].statisticExpression "\"count\""
param *.visualizer.*.statisticVisualizer[0].sourceFilter "\"**.CusterHead.udp **.sensor*.udp\""
param *.visualizer.*.statisticVisualizer[0].format "\"sent: %v pks\""
param *.visualizer.*.statisticVisualizer[1].displayStatistics true
param *.visualizer.*.statisticVisualizer[1].signalName "\"packetReceived\""
param *.visualizer.*.statisticVisualizer[1].statisticExpression "\"count\""
param *.visualizer.*.statisticVisualizer[1].sourceFilter "\"**.CusterHead.udp **.lamp*.udp\""
param *.visualizer.*.statisticVisualizer[1].format "\"rcvd: %v pks\""

vector 0 Ieee802154Showcasem.sensor1.energyStorage powerConsumption:vector ETV
attr interpolationmode sample-hold
attr source powerConsumptionChanged
attr title "Power consumption, vector"
vector 1 Ieee802154Showcasem.sensor2.energyStorage powerConsumption:vector ETV
attr interpolationmode sample-hold
attr source powerConsumptionChanged
attr title "Power consumption, vector"
vector 2 Ieee802154Showcasem.sensor3.energyStorage powerConsumption:vector ETV
attr interpolationmode sample-hold
attr source powerConsumptionChanged
attr title "Power consumption, vector"
vector 3 Ieee802154Showcasem.sensor4.energyStorage powerConsumption:vector ETV
attr interpolationmode sample-hold
attr source powerConsumptionChanged
attr title "Power consumption, vector"
vector 4 Ieee802154Showcasem.CusterHead.energyStorage powerConsumption:vector ETV
attr interpolationmode sample-hold
attr source powerConsumptionChanged
attr title "Power consumption, vector"
vector 5 Ieee802154Showcasem.sensorNode.energyStorage powerConsumption:vector ETV
attr interpolationmode sample-hold
attr source powerConsumptionChanged
attr title "Power consumption, vector"
vector 6 Ieee802154Showcasem.sensor1.wlan[0].radio radioMode:vector ETV
attr interpolationmode sample-hold
attr source radioModeChanged
attr title "Radio mode, vector"
vector 7 Ieee802154Showcasem.sensor1.wlan[0].radio.energyConsumer powerConsumption:vector ETV
attr interpolationmode sample-hold
attr source powerConsumptionChanged
attr title "Power consumption, vector"
vector 8 Ieee802154Showcasem.sensor2.wlan[0].radio radioMode:vector ETV
attr interpolationmode sample-hold
attr source radioModeChanged
attr title "Radio mode, vector"
vector 9 Ieee802154Showcasem.sensor2.wlan[0].radio.energyConsumer powerConsumption:vector ETV
attr interpolationmode sample-hold
attr source powerConsumptionChanged
attr title "Power consumption, vector"
vector 10 Ieee802154Showcasem.sensor3.wlan[0].radio radioMode:vector ETV
attr interpolationmode sample-hold
attr source radioModeChanged
attr title "Radio mode, vector"
vector 11 Ieee802154Showcasem.sensor3.wlan[0].radio.energyConsumer powerConsumption:vector ETV
attr interpolationmode sample-hold
attr source powerConsumptionChanged
attr title "Power consumption, vector"
vector 12 Ieee802154Showcasem.sensor4.wlan[0].radio radioMode:vector ETV
attr interpolationmode sample-hold
attr source radioModeChanged
attr title "Radio mode, vector"
vector 13 Ieee802154Showcasem.sensor4.wlan[0].radio.energyConsumer powerConsumption:vector ETV
attr interpolationmode sample-hold
attr source powerConsumptionChanged
attr title "Power consumption, vector"
vector 14 Ieee802154Showcasem.CusterHead.wlan[0].radio radioMode:vector ETV
attr interpolationmode sample-hold
attr source radioModeChanged
attr title "Radio mode, vector"
vector 15 Ieee802154Showcasem.CusterHead.wlan[0].radio.energyConsumer powerConsumption:vector ETV
attr interpolationmode sample-hold
attr source powerConsumptionChanged
attr title "Power consumption, vector"
vector 16 Ieee802154Showcasem.sensorNode.wlan[0].radio radioMode:vector ETV
attr interpolationmode sample-hold
attr source radioModeChanged
attr title "Radio mode, vector"
vector 17 Ieee802154Showcasem.sensorNode.wlan[0].radio.energyConsumer powerConsumption:vector ETV
attr interpolationmode sample-hold
attr source powerConsumptionChanged
attr title "Power consumption, vector"
vector 18 Ieee802154Showcasem.sensor1.wlan[0].radio receptionState:vector ETV
attr interpolationmode sample-hold
attr source receptionStateChanged
attr title "Radio reception state, vector"
vector 19 Ieee802154Showcasem.sensor2.wlan[0].radio receptionState:vector ETV
attr interpolationmode sample-hold
attr source receptionStateChanged
attr title "Radio reception state, vector"
vector 20 Ieee802154Showcasem.sensor3.wlan[0].radio receptionState:vector ETV
attr interpolationmode sample-hold
attr source receptionStateChanged
attr title "Radio reception state, vector"
vector 21 Ieee802154Showcasem.sensor4.wlan[0].radio receptionState:vector ETV
attr interpolationmode sample-hold
attr source receptionStateChanged
attr title "Radio reception state, vector"
vector 22 Ieee802154Showcasem.CusterHead.wlan[0].radio receptionState:vector ETV
attr interpolationmode sample-hold
attr source receptionStateChanged
attr title "Radio reception state, vector"
vector 23 Ieee802154Showcasem.sensorNode.wlan[0].radio receptionState:vector ETV
attr interpolationmode sample-hold
attr source receptionStateChanged
attr title "Radio reception state, vector"
vector 24 Ieee802154Showcasem.sensor4.app[0] packetSent:vector(packetBytes) ETV
attr interpolationmode none
attr source packetSent
attr title "packets sent, vector(packetBytes)"
vector 25 Ieee802154Showcasem.sensor4.udp packetSent:vector(packetBytes) ETV
attr interpolationmode none
attr source packetSent
attr title "packets sent, vector(packetBytes)"
vector 26 Ieee802154Showcasem.sensor4.energyStorage residualEnergyCapacity:vector ETV
attr interpolationmode linear
attr source residualEnergyCapacityChanged
attr title "Residual energy capacity, vector"
vector 27 Ieee802154Showcasem.sensor4.wlan[0].radio transmissionState:vector ETV
attr interpolationmode sample-hold
attr source transmissionStateChanged
attr title "Radio transmission state, vector"
vector 28 Ieee802154Showcasem.sensor3.energyStorage residualEnergyCapacity:vector ETV
attr interpolationmode linear
attr source residualEnergyCapacityChanged
attr title "Residual energy capacity, vector"
vector 29 Ieee802154Showcasem.sensorNode.energyStorage residualEnergyCapacity:vector ETV
attr interpolationmode linear
attr source residualEnergyCapacityChanged
attr title "Residual energy capacity, vector"
vector 30 Ieee802154Showcasem.CusterHead.energyStorage residualEnergyCapacity:vector ETV
attr interpolationmode linear
attr source residualEnergyCapacityChanged
attr title "Residual energy capacity, vector"
vector 31 Ieee802154Showcasem.sensor1.energyStorage residualEnergyCapacity:vector ETV
attr interpolationmode linear
attr source residualEnergyCapacityChanged
attr title "Residual energy capacity, vector"
vector 32 Ieee802154Showcasem.sensor2.energyStorage residualEnergyCapacity:vector ETV
attr interpolationmode linear
attr source residualEnergyCapacityChanged
attr title "Residual energy capacity, vector"
vector 33 Ieee802154Showcasem.sensor3.wlan[0].mac packetDropNotAddressToUs:vector(packetBytes) ETV
attr interpolationmode none
attr source packetDropReasonIsNotAddressedToUs(packetDropped)
attr title "packet drop: not addressed to us, vector(packetBytes)"
vector 34 Ieee802154Showcasem.sensorNode.wlan[0].mac packetDropNotAddressToUs:vector(packetBytes) ETV
attr interpolationmode none
attr source packetDropReasonIsNotAddressedToUs(packetDropped)
attr title "packet drop: not addressed to us, vector(packetBytes)"
vector 35 Ieee802154Showcasem.CusterHead.wlan[0].mac packetDropNotAddressToUs:vector(packetBytes) ETV
attr interpolationmode none
attr source packetDropReasonIsNotAddressedToUs(packetDropped)
attr title "packet drop: not addressed to us, vector(packetBytes)"
vector 36 Ieee802154Showcasem.sensor1.wlan[0].radio transmissionState:vector ETV
attr interpolationmode sample-hold
attr source transmissionStateChanged
attr title "Radio transmission state, vector"
vector 37 Ieee802154Showcasem.sensor1.ipv4.ip packetDropForwardingDisabled:vector(packetBytes) ETV
attr interpolationmode none
attr source packetDropReasonIsForwardingDisabled(packetDropped)
attr title "packet drop: forwarding disabled, vector(packetBytes)"
vector 38 Ieee802154Showcasem.sensor2.wlan[0].mac packetDropNotAddressToUs:vector(packetBytes) ETV
attr interpolationmode none
attr source packetDropReasonIsNotAddressedToUs(packetDropped)
attr title "packet drop: not addressed to us, vector(packetBytes)"
vector 39 Ieee802154Showcasem.sensor3.app[0] packetSent:vector(packetBytes) ETV
attr interpolationmode none
attr source packetSent
attr title "packets sent, vector(packetBytes)"
vector 40 Ieee802154Showcasem.sensor3.udp packetSent:vector(packetBytes) ETV
attr interpolationmode none
attr source packetSent
attr title "packets sent, vector(packetBytes)"
vector 41 Ieee802154Showcasem.sensor3.wlan[0].radio transmissionState:vector ETV
attr interpolationmode sample-hold
attr source transmissionStateChanged
attr title "Radio transmission state, vector"
vector 42 Ieee802154Showcasem.sensor4.wlan[0].mac packetDropNotAddressToUs:vector(packetBytes) ETV
attr interpolationmode none
attr source packetDropReasonIsNotAddressedToUs(packetDropped)
attr title "packet drop: not addressed to us, vector(packetBytes)"
vector 43 Ieee802154Showcasem.sensorNode.app[0] packetSent:vector(packetBytes) ETV
attr interpolationmode none
attr source packetSent
attr title "packets sent, vector(packetBytes)"
vector 44 Ieee802154Showcasem.sensorNode.udp packetSent:vector(packetBytes) ETV
attr interpolationmode none
attr source packetSent
attr title "packets sent, vector(packetBytes)"
vector 45 Ieee802154Showcasem.sensorNode.wlan[0].radio transmissionState:vector ETV
attr interpolationmode sample-hold
attr source transmissionStateChanged
attr title "Radio transmission state, vector"
vector 46 Ieee802154Showcasem.sensor1.app[0] packetSent:vector(packetBytes) ETV
attr interpolationmode none
attr source packetSent
attr title "packets sent, vector(packetBytes)"
vector 47 Ieee802154Showcasem.sensor1.udp packetSent:vector(packetBytes) ETV
attr interpolationmode none
attr source packetSent
attr title "packets sent, vector(packetBytes)"
vector 48 Ieee802154Showcasem.sensor2.app[0] packetSent:vector(packetBytes) ETV
attr interpolationmode none
attr source packetSent
attr title "packets sent, vector(packetBytes)"
vector 49 Ieee802154Showcasem.sensor2.udp packetSent:vector(packetBytes) ETV
attr interpolationmode none
attr source packetSent
attr title "packets sent, vector(packetBytes)"
vector 50 Ieee802154Showcasem.sensor2.wlan[0].radio transmissionState:vector ETV
attr interpolationmode sample-hold
attr source transmissionStateChanged
attr title "Radio transmission state, vector"
vector 51 Ieee802154Showcasem.sensor1.wlan[0].mac packetDropRetryLimitReached:vector(packetBytes) ETV
attr interpolationmode none
attr source packetDropReasonIsRetryLimitReached(packetDropped)
attr title "packet drop: retry limit reached, vector(packetBytes)"
0	0	0	0
0	0	0	0
0	0	0	0
0	0	0	0
0	0	0	5e-006
0	12	0.057033189102	0
0	12	0.057033189102	0.05
0	21	0.058729189102	5e-006
0	21	0.058729189102	5e-006
0	22	0.058729189102	0
0	22	0.058729189102	0
0	22	0.058729189102	0.005
0	27	0.058921189102	0
0	27	0.058921189102	0.075
0	33	0.059273189102	0.005
0	33	0.059273189102	0
0	33	0.059273189102	5e-006
0	33	0.059273189102	5e-006
0	33	0.059273189102	5e-006
0	58	0.386301929493	0
0	58	0.386301929493	0.05
0	68	0.387997929493	5e-006
0	68	0.387997929493	5e-006
0	69	0.387997929493	0
0	69	0.387997929493	0
0	69	0.387997929493	0.005
0	72	0.388189929493	0
0	72	0.388189929493	0.075
0	78	0.388541929493	0.005
0	78	0.388541929493	0
0	78	0.388541929493	5e-006
0	78	0.388541929493	5e-006
0	78	0.388541929493	5e-006
0	100	0.530815009593	0
0	100	0.530815009593	0.05
0	107	0.532511009593	5e-006
0	107	0.532511009593	5e-006
0	108	0.532511009593	0
0	108	0.532511009593	0
0	108	0.532511009593	0.005
0	117	0.532703009593	0
0	117	0.532703009593	0.075
0	123	0.533055009593	0.005
0	123	0.533055009593	0
0	123	0.533055009593	5e-006
0	123	0.533055009593	5e-006
0	123	0.533055009593	5e-006
0	142	0.84471374409	0
0	142	0.84471374409	0
0	142	0.84471374409	0.005
0	143	0.84490574409	0
0	143	0.84490574409	0.075
0	149	0.84660174409	0.005
0	149	0.84660174409	0
0	149	0.84660174409	5e-006
0	149	0.84660174409	5e-006
0	149	0.84660174409	5e-006
0	170	0.847571867847	0
0	170	0.847571867847	0.05
0	179	0.849267867847	5e-006
0	179	0.849267867847	5e-006
0	180	0.849267867847	0
0	180	0.849267867847	0
0	180	0.849267867847	0.005
0	189	0.849459867847	0
0	189	0.849459867847	0.075
0	195	0.849811867847	0.005
0	195	0.849811867847	0
0	195	0.849811867847	5e-006
0	195	0.849811867847	5e-006
0	195	0.849811867847	5e-006
0	207	0.851539867847	0
0	207	0.851539867847	0
0	207	0.851539867847	0.005
0	208	0.851731867847	0
0	208	0.851731867847	0.075
0	214	0.853427867847	0.005
0	214	0.853427867847	0
0	214	0.853427867847	5e-006
0	214	0.853427867847	5e-006
0	214	0.853427867847	5e-006
0	227	0.856035867847	0
0	227	0.856035867847	0
0	227	0.856035867847	0.005
0	228	0.856227867847	0
0	228	0.856227867847	0.075
0	235	0.857923867847	0.005
0	235	0.857923867847	0
0	235	0.857923867847	5e-006
0	235	0.857923867847	5e-006
0	235	0.857923867847	5e-006
0	250	0.860851867847	0
0	250	0.860851867847	0
0	250	0.860851867847	0.005
0	251	0.861043867847	0
0	251	0.861043867847	0.075
0	257	0.862739867847	0.005
0	257	0.862739867847	0
0	257	0.862739867847	5e-006
0	257	0.862739867847	5e-006
0	257	0.862739867847	5e-006
0	282	1.057033189102	0
0	282	1.057033189102	0.05
0	291	1.058729189102	5e-006
0	291	1.058729189102	5e-006
0	292	1.058729189102	0
0	292	1.058729189102	0
0	292	1.058729189102	0.005
0	297	1.058921189102	0
0	297	1.058921189102	0.075
0	303	1.059273189102	0.005
0	303	1.059273189102	0
0	303	1.059273189102	5e-006
0	303	1.059273189102	5e-006
0	303	1.059273189102	5e-006
0	327	1.385661929493	0
0	327	1.385661929493	0.05
0	337	1.387357929493	5e-006
0	337	1.387357929493	5e-006
0	338	1.387357929493	0
0	338	1.387357929493	0
0	338	1.387357929493	0.005
0	341	1.387549929493	0
0	341	1.387549929493	0.075
0	347	1.387901929493	0.005
0	347	1.387901929493	0
0	347	1.387901929493	5e-006
0	347	1.387901929493	5e-006
0	347	1.387901929493	5e-006
0	368	1.529535009593	0
0	368	1.529535009593	0.05
0	375	1.531231009593	5e-006
0	375	1.531231009593	5e-006
0	376	1.531231009593	0
0	376	1.531231009593	0
0	376	1.531231009593	0.005
0	385	1.531423009593	0
0	385	1.531423009593	0.075
0	391	1.531775009593	0.005
0	391	1.531775009593	0
0	391	1.531775009593	5e-006
0	391	1.531775009593	5e-006
0	391	1.531775009593	5e-006
0	409	1.84599374409	0
0	409	1.84599374409	0
0	409	1.84599374409	0.005
0	410	1.84618574409	0
0	410	1.84618574409	0.075
0	420	1.84788174409	0.005
0	420	1.84788174409	0
0	420	1.84788174409	5e-006
0	420	1.84788174409	5e-006
0	420	1.84788174409	5e-006
0	436	1.848531867847	0
0	436	1.848531867847	0.05
0	443	1.850227867847	5e-006
0	443	1.850227867847	5e-006
0	444	1.850227867847	0
0	444	1.850227867847	0
0	444	1.850227867847	0.005
0	453	1.850419867847	0
0	453	1.850419867847	0.075
0	459	1.850771867847	0.005
0	459	1.850771867847	0
0	459	1.850771867847	5e-006
0	459	1.850771867847	5e-006
0	459	1.850771867847	5e-006
0	471	1.853139867847	0
0	471	1.853139867847	0
0	471	1.853139867847	0.005
0	472	1.853331867847	0
0	472	1.853331867847	0.075
0	478	1.855027867847	0.005
0	478	1.855027867847	0
0	478	1.855027867847	5e-006
0	478	1.855027867847	5e-006
0	478	1.855027867847	5e-006
0	491	1.855715867847	0
0	491	1.855715867847	0
0	491	1.855715867847	0.005
0	492	1.855907867847	0
0	492	1.855907867847	0.075
0	498	1.857603867847	0.005
0	498	1.857603867847	0
0	498	1.857603867847	5e-006
0	498	1.857603867847	5e-006
0	498	1.857603867847	5e-006
0	512	1.858611867847	0
0	512	1.858611867847	0
0	512	1.858611867847	0.005
0	513	1.858803867847	0
0	513	1.858803867847	0.075
0	520	1.860499867847	0.005
0	520	1.860499867847	0
0	520	1.860499867847	5e-006
0	520	1.860499867847	5e-006
0	520	1.860499867847	5e-006
0	546	2.057353189102	0
0	546	2.057353189102	0.05
0	555	2.059049189102	5e-006
0	555	2.059049189102	5e-006
0	556	2.059049189102	0
0	556	2.059049189102	0
0	556	2.059049189102	0.005
0	561	2.059241189102	0
0	561	2.059241189102	0.075
0	567	2.059593189102	0.005
0	567	2.059593189102	0
0	567	2.059593189102	5e-006
0	567	2.059593189102	5e-006
0	567	2.059593189102	5e-006
0	591	2.384701929493	0
0	591	2.384701929493	0.05
0	601	2.386397929493	5e-006
0	601	2.386397929493	5e-006
0	602	2.386397929493	0
0	602	2.386397929493	0
0	602	2.386397929493	0.005
0	605	2.386589929493	0
0	605	2.386589929493	0.075
0	611	2.386941929493	0.005
0	611	2.386941929493	0
0	611	2.386941929493	5e-006
0	611	2.386941929493	5e-006
0	611	2.386941929493	5e-006
1	0	0	0
1	0	0	0
1	0	0	0
1	0	0	0
1	0	0	5e-006
1	13	0.057033207452	0
1	13	0.057033207452	0.05
1	24	0.058729207452	5e-006
1	24	0.058729207452	5e-006
1	30	0.058921319692	0
1	30	0.058921319692	0.05
1	38	0.059273319692	5e-006
1	38	0.059273319692	5e-006
1	57	0.386301886847	0
1	57	0.386301886847	0.05
1	66	0.387997886847	5e-006
1	66	0.387997886847	5e-006
1	75	0.388190060083	0
1	75	0.388190060083	0.05
1	83	0.388542060083	5e-006
1	83	0.388542060083	5e-006
1	102	0.530815079039	0
1	102	0.530815079039	0.05
1	112	0.532511079039	5e-006
1	112	0.532511079039	5e-006
1	120	0.532703140183	0
1	120	0.532703140183	0.05
1	128	0.533055140183	5e-006
1	128	0.533055140183	5e-006
1	146	0.84490587468	0
1	146	0.84490587468	0.05
1	154	0.84660187468	5e-006
1	154	0.84660187468	5e-006
1	167	0.847379737257	0
1	167	0.847379737257	0
1	167	0.847379737257	0.005
1	168	0.847571737257	0
1	168	0.847571737257	0.075
1	176	0.849267737257	0.005
1	176	0.849267737257	0
1	176	0.849267737257	5e-006
1	176	0.849267737257	5e-006
1	176	0.849267737257	5e-006
1	192	0.849459998437	0
1	192	0.849459998437	0.05
1	200	0.849811998437	5e-006
1	200	0.849811998437	5e-006
1	211	0.851731998437	0
1	211	0.851731998437	0.05
1	219	0.853427998437	5e-006
1	219	0.853427998437	5e-006
1	231	0.856227998437	0
1	231	0.856227998437	0.05
1	240	0.857923998437	5e-006
1	240	0.857923998437	5e-006
1	254	0.861043998437	0
1	254	0.861043998437	0.05
1	262	0.862739998437	5e-006
1	262	0.862739998437	5e-006
1	283	1.057033207452	0
1	283	1.057033207452	0.05
1	294	1.058729207452	5e-006
1	294	1.058729207452	5e-006
1	300	1.058921319692	0
1	300	1.058921319692	0.05
1	308	1.059273319692	5e-006
1	308	1.059273319692	5e-006
1	326	1.385661886847	0
1	326	1.385661886847	0.05
1	335	1.387357886847	5e-006
1	335	1.387357886847	5e-006
1	344	1.387550060083	0
1	344	1.387550060083	0.05
1	352	1.387902060083	5e-006
1	352	1.387902060083	5e-006
1	370	1.529535079039	0
1	370	1.529535079039	0.05
1	380	1.531231079039	5e-006
1	380	1.531231079039	5e-006
1	388	1.531423140183	0
1	388	1.531423140183	0.05
1	396	1.531775140183	5e-006
1	396	1.531775140183	5e-006
1	413	1.84618587468	0
1	413	1.84618587468	0.05
1	425	1.84788187468	5e-006
1	425	1.84788187468	5e-006
1	432	1.848339737257	0
1	432	1.848339737257	0
1	432	1.848339737257	0.005
1	434	1.848531737257	0
1	434	1.848531737257	0.075
1	440	1.850227737257	0.005
1	440	1.850227737257	0
1	440	1.850227737257	5e-006
1	440	1.850227737257	5e-006
1	440	1.850227737257	5e-006
1	456	1.850419998437	0
1	456	1.850419998437	0.05
1	464	1.850771998437	5e-006
1	464	1.850771998437	5e-006
1	475	1.853331998437	0
1	475	1.853331998437	0.05
1	483	1.855027998437	5e-006
1	483	1.855027998437	5e-006
1	495	1.855907998437	0
1	495	1.855907998437	0.05
1	503	1.857603998437	5e-006
1	503	1.857603998437	5e-006
1	516	1.858803998437	0
1	516	1.858803998437	0.05
1	525	1.860499998437	5e-006
1	525	1.860499998437	5e-006
1	547	2.057353207452	0
1	547	2.057353207452	0.05
1	558	2.059049207452	5e-006
1	558	2.059049207452	5e-006
1	564	2.059241319692	0
1	564	2.059241319692	0.05
1	572	2.059593319692	5e-006
1	572	2.059593319692	5e-006
1	590	2.384701886847	0
1	590	2.384701886847	0.05
1	599	2.386397886847	5e-006
1	599	2.386397886847	5e-006
1	608	2.386590060083	0
1	608	2.386590060083	0.05
1	616	2.386942060083	5e-006
1	616	2.386942060083	5e-006
2	0	0	0
2	0	0	0
2	0	0	0
2	0	0	0
2	0	0	5e-006
2	9	0.057033077464	0
2	9	0.057033077464	0.05
2	15	0.058729077464	5e-006
2	15	0.058729077464	5e-006
2	32	0.058921410372	0
2	32	0.058921410372	0.05
2	42	0.059273410372	5e-006
2	42	0.059273410372	5e-006
2	52	0.386109708223	0
2	52	0.386109708223	0
2	52	0.386109708223	0.005
2	53	0.386301708223	0
2	53	0.386301708223	0.075
2	59	0.387997708223	0.005
2	59	0.387997708223	0
2	59	0.387997708223	5e-006
2	59	0.387997708223	5e-006
2	59	0.387997708223	5e-006
2	77	0.388190150763	0
2	77	0.388190150763	0.05
2	87	0.388542150763	5e-006
2	87	0.388542150763	5e-006
2	103	0.530815080452	0
2	103	0.530815080452	0.05
2	114	0.532511080452	5e-006
2	114	0.532511080452	5e-006
2	122	0.532703230863	0
2	122	0.532703230863	0.05
2	132	0.533055230863	5e-006
2	132	0.533055230863	5e-006
2	148	0.84490596536	0
2	148	0.84490596536	0.05
2	158	0.84660196536	5e-006
2	158	0.84660196536	5e-006
2	172	0.847571915881	0
2	172	0.847571915881	0.05
2	184	0.849267915881	5e-006
2	184	0.849267915881	5e-006
2	194	0.849460089117	0
2	194	0.849460089117	0.05
2	204	0.849812089117	5e-006
2	204	0.849812089117	5e-006
2	213	0.851732089117	0
2	213	0.851732089117	0.05
2	223	0.853428089117	5e-006
2	223	0.853428089117	5e-006
2	233	0.856228089117	0
2	233	0.856228089117	0.05
2	244	0.857924089117	5e-006
2	244	0.857924089117	5e-006
2	256	0.861044089117	0
2	256	0.861044089117	0.05
2	266	0.862740089117	5e-006
2	266	0.862740089117	5e-006
2	279	1.057033077464	0
2	279	1.057033077464	0.05
2	285	1.058729077464	5e-006
2	285	1.058729077464	5e-006
2	302	1.058921410372	0
2	302	1.058921410372	0.05
2	312	1.059273410372	5e-006
2	312	1.059273410372	5e-006
2	321	1.385469708223	0
2	321	1.385469708223	0
2	321	1.385469708223	0.005
2	322	1.385661708223	0
2	322	1.385661708223	0.075
2	328	1.387357708223	0.005
2	328	1.387357708223	0
2	328	1.387357708223	5e-006
2	328	1.387357708223	5e-006
2	328	1.387357708223	5e-006
2	346	1.387550150763	0
2	346	1.387550150763	0.05
2	356	1.387902150763	5e-006
2	356	1.387902150763	5e-006
2	371	1.529535080452	0
2	371	1.529535080452	0.05
2	382	1.531231080452	5e-006
2	382	1.531231080452	5e-006
2	390	1.531423230863	0
2	390	1.531423230863	0.05
2	400	1.531775230863	5e-006
2	400	1.531775230863	5e-006
2	415	1.84618596536	0
2	415	1.84618596536	0.05
2	429	1.84788196536	5e-006
2	429	1.84788196536	5e-006
2	438	1.848531915881	0
2	438	1.848531915881	0.05
2	448	1.850227915881	5e-006
2	448	1.850227915881	5e-006
2	458	1.850420089117	0
2	458	1.850420089117	0.05
2	468	1.850772089117	5e-006
2	468	1.850772089117	5e-006
2	477	1.853332089117	0
2	477	1.853332089117	0.05
2	487	1.855028089117	5e-006
2	487	1.855028089117	5e-006
2	497	1.855908089117	0
2	497	1.855908089117	0.05
2	507	1.857604089117	5e-006
2	507	1.857604089117	5e-006
2	518	1.858804089117	0
2	518	1.858804089117	0.05
2	529	1.860500089117	5e-006
2	529	1.860500089117	5e-006
2	543	2.057353077464	0
2	543	2.057353077464	0.05
2	549	2.059049077464	5e-006
2	549	2.059049077464	5e-006
2	566	2.059241410372	0
2	566	2.059241410372	0.05
2	576	2.059593410372	5e-006
2	576	2.059593410372	5e-006
2	585	2.384509708223	0
2	585	2.384509708223	0
2	585	2.384509708223	0.005
2	586	2.384701708223	0
2	586	2.384701708223	0.075
2	592	2.386397708223	0.005
2	592	2.386397708223	0
2	592	2.386397708223	5e-006
2	592	2.386397708223	5e-006
2	592	2.386397708223	5e-006
2	610	2.386590150763	0
2	610	2.386590150763	0.05
2	620	2.386942150763	5e-006
2	620	2.386942150763	5e-006
3	0	0	0
3	0	0	0
3	0	0	0
3	0	0	0
3	0	0	5e-006
3	7	0.056840975726	0
3	7	0.056840975726	0
3	7	0.056840975726	0.005
3	8	0.057032975726	0
3	8	0.057032975726	0.075
3	14	0.058728975726	0.005
3	14	0.058728975726	0
3	14	0.058728975726	5e-006
3	14	0.058728975726	5e-006
3	14	0.058728975726	5e-006
3	31	0.058921402478	0
3	31	0.058921402478	0.05
3	40	0.059273402478	5e-006
3	40	0.059273402478	5e-006
3	55	0.386301809961	0
3	55	0.386301809961	0.05
3	62	0.387997809961	5e-006
3	62	0.387997809961	5e-006
3	76	0.388190142869	0
3	76	0.388190142869	0.05
3	85	0.388542142869	5e-006
3	85	0.388542142869	5e-006
3	101	0.530815048751	0
3	101	0.530815048751	0.05
3	110	0.532511048751	5e-006
3	110	0.532511048751	5e-006
3	121	0.532703222969	0
3	121	0.532703222969	0.05
3	130	0.533055222969	5e-006
3	130	0.533055222969	5e-006
3	147	0.844905957466	0
3	147	0.844905957466	0.05
3	156	0.846601957466	5e-006
3	156	0.846601957466	5e-006
3	173	0.847571968983	0
3	173	0.847571968983	0.05
3	186	0.849267968983	5e-006
3	186	0.849267968983	5e-006
3	193	0.849460081223	0
3	193	0.849460081223	0.05
3	202	0.849812081223	5e-006
3	202	0.849812081223	5e-006
3	212	0.851732081223	0
3	212	0.851732081223	0.05
3	221	0.853428081223	5e-006
3	221	0.853428081223	5e-006
3	232	0.856228081223	0
3	232	0.856228081223	0.05
3	242	0.857924081223	5e-006
3	242	0.857924081223	5e-006
3	255	0.861044081223	0
3	255	0.861044081223	0.05
3	264	0.862740081223	5e-006
3	264	0.862740081223	5e-006
3	277	1.056840975726	0
3	277	1.056840975726	0
3	277	1.056840975726	0.005
3	278	1.057032975726	0
3	278	1.057032975726	0.075
3	284	1.058728975726	0.005
3	284	1.058728975726	0
3	284	1.058728975726	5e-006
3	284	1.058728975726	5e-006
3	284	1.058728975726	5e-006
3	301	1.058921402478	0
3	301	1.058921402478	0.05
3	310	1.059273402478	5e-006
3	310	1.059273402478	5e-006
3	324	1.385661809961	0
3	324	1.385661809961	0.05
3	331	1.387357809961	5e-006
3	331	1.387357809961	5e-006
3	345	1.387550142869	0
3	345	1.387550142869	0.05
3	354	1.387902142869	5e-006
3	354	1.387902142869	5e-006
3	369	1.529535048751	0
3	369	1.529535048751	0.05
3	378	1.531231048751	5e-006
3	378	1.531231048751	5e-006
3	389	1.531423222969	0
3	389	1.531423222969	0.05
3	398	1.531775222969	5e-006
3	398	1.531775222969	5e-006
3	414	1.846185957466	0
3	414	1.846185957466	0.05
3	427	1.847881957466	5e-006
3	427	1.847881957466	5e-006
3	439	1.848531968983	0
3	439	1.848531968983	0.05
3	450	1.850227968983	5e-006
3	450	1.850227968983	5e-006
3	457	1.850420081223	0
3	457	1.850420081223	0.05
3	466	1.850772081223	5e-006
3	466	1.850772081223	5e-006
3	476	1.853332081223	0
3	476	1.853332081223	0.05
3	485	1.855028081223	5e-006
3	485	1.855028081223	5e-006
3	496	1.855908081223	0
3	496	1.855908081223	0.05
3	505	1.857604081223	5e-006
3	505	1.857604081223	5e-006
3	517	1.858804081223	0
3	517	1.858804081223	0.05
3	527	1.860500081223	5e-006
3	527	1.860500081223	5e-006
3	541	2.057160975726	0
3	541	2.057160975726	0
3	541	2.057160975726	0.005
3	542	2.057352975726	0
3	542	2.057352975726	0.075
3	548	2.059048975726	0.005
3	548	2.059048975726	0
3	548	2.059048975726	5e-006
3	548	2.059048975726	5e-006
3	548	2.059048975726	5e-006
3	565	2.059241402478	0
3	565	2.059241402478	0.05
3	574	2.059593402478	5e-006
3	574	2.059593402478	5e-006
3	588	2.384701809961	0
3	588	2.384701809961	0.05
3	595	2.386397809961	5e-006
3	595	2.386397809961	5e-006
3	609	2.386590142869	0
3	609	2.386590142869	0.05
3	618	2.386942142869	5e-006
3	618	2.386942142869	5e-006
4	0	0	0
4	0	0	0
4	0	0	0
4	0	0	0
4	0	0	5e-006
4	11	0.05703310376	0
4	11	0.05703310376	0.05
4	19	0.05872910376	5e-006
4	19	0.05872910376	5e-006
4	29	0.058921311388	0
4	29	0.058921311388	0.05
4	36	0.059273311388	5e-006
4	36	0.059273311388	5e-006
4	54	0.386301808389	0
4	54	0.386301808389	0.05
4	60	0.387997808389	5e-006
4	60	0.387997808389	5e-006
4	74	0.388190051779	0
4	74	0.388190051779	0.05
4	81	0.388542051779	5e-006
4	81	0.388542051779	5e-006
4	99	0.530815002664	0
4	99	0.530815002664	0.05
4	105	0.532511002664	5e-006
4	105	0.532511002664	5e-006
4	119	0.532703131879	0
4	119	0.532703131879	0.05
4	126	0.533055131879	5e-006
4	126	0.533055131879	5e-006
4	145	0.844905866376	0
4	145	0.844905866376	0.05
4	152	0.846601866376	5e-006
4	152	0.846601866376	5e-006
4	169	0.84757184136	0
4	169	0.84757184136	0.05
4	177	0.84926784136	5e-006
4	177	0.84926784136	5e-006
4	191	0.849459990133	0
4	191	0.849459990133	0.05
4	198	0.849811990133	5e-006
4	198	0.849811990133	5e-006
4	210	0.851731990133	0
4	210	0.851731990133	0.05
4	217	0.853427990133	5e-006
4	217	0.853427990133	5e-006
4	230	0.856227990133	0
4	230	0.856227990133	0.05
4	238	0.857923990133	5e-006
4	238	0.857923990133	5e-006
4	253	0.861043990133	0
4	253	0.861043990133	0.05
4	260	0.862739990133	5e-006
4	260	0.862739990133	5e-006
4	281	1.05703310376	0
4	281	1.05703310376	0.05
4	289	1.05872910376	5e-006
4	289	1.05872910376	5e-006
4	299	1.058921311388	0
4	299	1.058921311388	0.05
4	306	1.059273311388	5e-006
4	306	1.059273311388	5e-006
4	323	1.385661808389	0
4	323	1.385661808389	0.05
4	329	1.387357808389	5e-006
4	329	1.387357808389	5e-006
4	343	1.387550051779	0
4	343	1.387550051779	0.05
4	350	1.387902051779	5e-006
4	350	1.387902051779	5e-006
4	367	1.529535002664	0
4	367	1.529535002664	0.05
4	373	1.531231002664	5e-006
4	373	1.531231002664	5e-006
4	387	1.531423131879	0
4	387	1.531423131879	0.05
4	394	1.531775131879	5e-006
4	394	1.531775131879	5e-006
4	412	1.846185866376	0
4	412	1.846185866376	0.05
4	423	1.847881866376	5e-006
4	423	1.847881866376	5e-006
4	435	1.84853184136	0
4	435	1.84853184136	0.05
4	441	1.85022784136	5e-006
4	441	1.85022784136	5e-006
4	455	1.850419990133	0
4	455	1.850419990133	0.05
4	462	1.850771990133	5e-006
4	462	1.850771990133	5e-006
4	474	1.853331990133	0
4	474	1.853331990133	0.05
4	481	1.855027990133	5e-006
4	481	1.855027990133	5e-006
4	494	1.855907990133	0
4	494	1.855907990133	0.05
4	501	1.857603990133	5e-006
4	501	1.857603990133	5e-006
4	515	1.858803990133	0
4	515	1.858803990133	0.05
4	523	1.860499990133	5e-006
4	523	1.860499990133	5e-006
4	545	2.05735310376	0
4	545	2.05735310376	0.05
4	553	2.05904910376	5e-006
4	553	2.05904910376	5e-006
4	563	2.059241311388	0
4	563	2.059241311388	0.05
4	570	2.059593311388	5e-006
4	570	2.059593311388	5e-006
4	587	2.384701808389	0
4	587	2.384701808389	0.05
4	593	2.386397808389	5e-006
4	593	2.386397808389	5e-006
4	607	2.386590051779	0
4	607	2.386590051779	0.05
4	614	2.386942051779	5e-006
4	614	2.386942051779	5e-006
5	0	0	0
5	0	0	0
5	0	0	0
5	0	0	0
5	0	0	5e-006
5	10	0.057033102945	0
5	10	0.057033102945	0.05
5	17	0.058729102945	5e-006
5	17	0.058729102945	5e-006
5	28	0.058921277163	0
5	28	0.058921277163	0.05
5	34	0.059273277163	5e-006
5	34	0.059273277163	5e-006
5	56	0.386301867143	0
5	56	0.386301867143	0.05
5	64	0.387997867143	5e-006
5	64	0.387997867143	5e-006
5	73	0.388190017554	0
5	73	0.388190017554	0.05
5	79	0.388542017554	5e-006
5	79	0.388542017554	5e-006
5	97	0.530622921532	0
5	97	0.530622921532	0
5	97	0.530622921532	0.005
5	98	0.530814921532	0
5	98	0.530814921532	0.075
5	104	0.532510921532	0.005
5	104	0.532510921532	0
5	104	0.532510921532	5e-006
5	104	0.532510921532	5e-006
5	104	0.532510921532	5e-006
5	118	0.532703097654	0
5	118	0.532703097654	0.05
5	124	0.533055097654	5e-006
5	124	0.533055097654	5e-006
5	144	0.844905832151	0
5	144	0.844905832151	0.05
5	150	0.846601832151	5e-006
5	150	0.846601832151	5e-006
5	171	0.847571894764	0
5	171	0.847571894764	0.05
5	182	0.849267894764	5e-006
5	182	0.849267894764	5e-006
5	190	0.849459955908	0
5	190	0.849459955908	0.05
5	196	0.849811955908	5e-006
5	196	0.849811955908	5e-006
5	209	0.851731955908	0
5	209	0.851731955908	0.05
5	215	0.853427955908	5e-006
5	215	0.853427955908	5e-006
5	229	0.856227955908	0
5	229	0.856227955908	0.05
5	236	0.857923955908	5e-006
5	236	0.857923955908	5e-006
5	252	0.861043955908	0
5	252	0.861043955908	0.05
5	258	0.862739955908	5e-006
5	258	0.862739955908	5e-006
5	280	1.057033102945	0
5	280	1.057033102945	0.05
5	287	1.058729102945	5e-006
5	287	1.058729102945	5e-006
5	298	1.058921277163	0
5	298	1.058921277163	0.05
5	304	1.059273277163	5e-006
5	304	1.059273277163	5e-006
5	325	1.385661867143	0
5	325	1.385661867143	0.05
5	333	1.387357867143	5e-006
5	333	1.387357867143	5e-006
5	342	1.387550017554	0
5	342	1.387550017554	0.05
5	348	1.387902017554	5e-006
5	348	1.387902017554	5e-006
5	365	1.529342921532	0
5	365	1.529342921532	0
5	365	1.529342921532	0.005
5	366	1.529534921532	0
5	366	1.529534921532	0.075
5	372	1.531230921532	0.005
5	372	1.531230921532	0
5	372	1.531230921532	5e-006
5	372	1.531230921532	5e-006
5	372	1.531230921532	5e-006
5	386	1.531423097654	0
5	386	1.531423097654	0.05
5	392	1.531775097654	5e-006
5	392	1.531775097654	5e-006
5	411	1.846185832151	0
5	411	1.846185832151	0.05
5	421	1.847881832151	5e-006
5	421	1.847881832151	5e-006
5	437	1.848531894764	0
5	437	1.848531894764	0.05
5	446	1.850227894764	5e-006
5	446	1.850227894764	5e-006
5	454	1.850419955908	0
5	454	1.850419955908	0.05
5	460	1.850771955908	5e-006
5	460	1.850771955908	5e-006
5	473	1.853331955908	0
5	473	1.853331955908	0.05
5	479	1.855027955908	5e-006
5	479	1.855027955908	5e-006
5	493	1.855907955908	0
5	493	1.855907955908	0.05
5	499	1.857603955908	5e-006
5	499	1.857603955908	5e-006
5	514	1.858803955908	0
5	514	1.858803955908	0.05
5	521	1.860499955908	5e-006
5	521	1.860499955908	5e-006
5	544	2.057353102945	0
5	544	2.057353102945	0.05
5	551	2.059049102945	5e-006
5	551	2.059049102945	5e-006
5	562	2.059241277163	0
5	562	2.059241277163	0.05
5	568	2.059593277163	5e-006
5	568	2.059593277163	5e-006
5	589	2.384701867143	0
5	589	2.384701867143	0.05
5	597	2.386397867143	5e-006
5	597	2.386397867143	5e-006
5	606	2.386590017554	0
5	606	2.386590017554	0.05
5	612	2.386942017554	5e-006
5	612	2.386942017554	5e-006
6	0	0	0
6	0	0	0
6	0	0	2
6	22	0.058729189102	3
6	33	0.059273189102	2
6	69	0.387997929493	3
6	78	0.388541929493	2
6	108	0.532511009593	3
6	123	0.533055009593	2
6	142	0.84471374409	3
6	149	0.84660174409	2
6	180	0.849267867847	3
6	195	0.849811867847	2
6	207	0.851539867847	3
6	214	0.853427867847	2
6	227	0.856035867847	3
6	235	0.857923867847	2
6	250	0.860851867847	3
6	257	0.862739867847	2
6	292	1.058729189102	3
6	303	1.059273189102	2
6	338	1.387357929493	3
6	347	1.387901929493	2
6	376	1.531231009593	3
6	391	1.531775009593	2
6	409	1.84599374409	3
6	420	1.84788174409	2
6	444	1.850227867847	3
6	459	1.850771867847	2
6	471	1.853139867847	3
6	478	1.855027867847	2
6	491	1.855715867847	3
6	498	1.857603867847	2
6	512	1.858611867847	3
6	520	1.860499867847	2
6	556	2.059049189102	3
6	567	2.059593189102	2
6	602	2.386397929493	3
6	611	2.386941929493	2
7	0	0	0
7	0	0	0
7	0	0	0
7	0	0	5e-006
7	12	0.057033189102	0
7	12	0.057033189102	0.05
7	21	0.058729189102	5e-006
7	21	0.058729189102	5e-006
7	22	0.058729189102	0
7	22	0.058729189102	0
7	22	0.058729189102	0.005
7	27	0.058921189102	0
7	27	0.058921189102	0.075
7	33	0.059273189102	0.005
7	33	0.059273189102	0
7	33	0.059273189102	5e-006
7	33	0.059273189102	5e-006
7	33	0.059273189102	5e-006
7	58	0.386301929493	0
7	58	0.386301929493	0.05
7	68	0.387997929493	5e-006
7	68	0.387997929493	5e-006
7	69	0.387997929493	0
7	69	0.387997929493	0
7	69	0.387997929493	0.005
7	72	0.388189929493	0
7	72	0.388189929493	0.075
7	78	0.388541929493	0.005
7	78	0.388541929493	0
7	78	0.388541929493	5e-006
7	78	0.388541929493	5e-006
7	78	0.388541929493	5e-006
7	100	0.530815009593	0
7	100	0.530815009593	0.05
7	107	0.532511009593	5e-006
7	107	0.532511009593	5e-006
7	108	0.532511009593	0
7	108	0.532511009593	0
7	108	0.532511009593	0.005
7	117	0.532703009593	0
7	117	0.532703009593	0.075
7	123	0.533055009593	0.005
7	123	0.533055009593	0
7	123	0.533055009593	5e-006
7	123	0.533055009593	5e-006
7	123	0.533055009593	5e-006
7	142	0.84471374409	0
7	142	0.84471374409	0
7	142	0.84471374409	0.005
7	143	0.84490574409	0
7	143	0.84490574409	0.075
7	149	0.84660174409	0.005
7	149	0.84660174409	0
7	149	0.84660174409	5e-006
7	149	0.84660174409	5e-006
7	149	0.84660174409	5e-006
7	170	0.847571867847	0
7	170	0.847571867847	0.05
7	179	0.849267867847	5e-006
7	179	0.849267867847	5e-006
7	180	0.849267867847	0
7	180	0.849267867847	0
7	180	0.849267867847	0.005
7	189	0.849459867847	0
7	189	0.849459867847	0.075
7	195	0.849811867847	0.005
7	195	0.849811867847	0
7	195	0.849811867847	5e-006
7	195	0.849811867847	5e-006
7	195	0.849811867847	5e-006
7	207	0.851539867847	0
7	207	0.851539867847	0
7	207	0.851539867847	0.005
7	208	0.851731867847	0
7	208	0.851731867847	0.075
7	214	0.853427867847	0.005
7	214	0.853427867847	0
7	214	0.853427867847	5e-006
7	214	0.853427867847	5e-006
7	214	0.853427867847	5e-006
7	227	0.856035867847	0
7	227	0.856035867847	0
7	227	0.856035867847	0.005
7	228	0.856227867847	0
7	228	0.856227867847	0.075
7	235	0.857923867847	0.005
7	235	0.857923867847	0
7	235	0.857923867847	5e-006
7	235	0.857923867847	5e-006
7	235	0.857923867847	5e-006
7	250	0.860851867847	0
7	250	0.860851867847	0
7	250	0.860851867847	0.005
7	251	0.861043867847	0
7	251	0.861043867847	0.075
7	257	0.862739867847	0.005
7	257	0.862739867847	0
7	257	0.862739867847	5e-006
7	257	0.862739867847	5e-006
7	257	0.862739867847	5e-006
7	282	1.057033189102	0
7	282	1.057033189102	0.05
7	291	1.058729189102	5e-006
7	291	1.058729189102	5e-006
7	292	1.058729189102	0
7	292	1.058729189102	0
7	292	1.058729189102	0.005
7	297	1.058921189102	0
7	297	1.058921189102	0.075
7	303	1.059273189102	0.005
7	303	1.059273189102	0
7	303	1.059273189102	5e-006
7	303	1.059273189102	5e-006
7	303	1.059273189102	5e-006
7	327	1.385661929493	0
7	327	1.385661929493	0.05
7	337	1.387357929493	5e-006
7	337	1.387357929493	5e-006
7	338	1.387357929493	0
7	338	1.387357929493	0
7	338	1.387357929493	0.005
7	341	1.387549929493	0
7	341	1.387549929493	0.075
7	347	1.387901929493	0.005
7	347	1.387901929493	0
7	347	1.387901929493	5e-006
7	347	1.387901929493	5e-006
7	347	1.387901929493	5e-006
7	368	1.529535009593	0
7	368	1.529535009593	0.05
7	375	1.531231009593	5e-006
7	375	1.531231009593	5e-006
7	376	1.531231009593	0
7	376	1.531231009593	0
7	376	1.531231009593	0.005
7	385	1.531423009593	0
7	385	1.531423009593	0.075
7	391	1.531775009593	0.005
7	391	1.531775009593	0
7	391	1.531775009593	5e-006
7	391	1.531775009593	5e-006
7	391	1.531775009593	5e-006
7	409	1.84599374409	0
7	409	1.84599374409	0
7	409	1.84599374409	0.005
7	410	1.84618574409	0
7	410	1.84618574409	0.075
7	420	1.84788174409	0.005
7	420	1.84788174409	0
7	420	1.84788174409	5e-006
7	420	1.84788174409	5e-006
7	420	1.84788174409	5e-006
7	436	1.848531867847	0
7	436	1.848531867847	0.05
7	443	1.850227867847	5e-006
7	443	1.850227867847	5e-006
7	444	1.850227867847	0
7	444	1.850227867847	0
7	444	1.850227867847	0.005
7	453	1.850419867847	0
7	453	1.850419867847	0.075
7	459	1.850771867847	0.005
7	459	1.850771867847	0
7	459	1.850771867847	5e-006
7	459	1.850771867847	5e-006
7	459	1.850771867847	5e-006
7	471	1.853139867847	0
7	471	1.853139867847	0
7	471	1.853139867847	0.005
7	472	1.853331867847	0
7	472	1.853331867847	0.075
7	478	1.855027867847	0.005
7	478	1.855027867847	0
7	478	1.855027867847	5e-006
7	478	1.855027867847	5e-006
7	478	1.855027867847	5e-006
7	491	1.855715867847	0
7	491	1.855715867847	0
7	491	1.855715867847	0.005
7	492	1.855907867847	0
7	492	1.855907867847	0.075
7	498	1.857603867847	0.005
7	498	1.857603867847	0
7	498	1.857603867847	5e-006
7	498	1.857603867847	5e-006
7	498	1.857603867847	5e-006
7	512	1.858611867847	0
7	512	1.858611867847	0
7	512	1.858611867847	0.005
7	513	1.858803867847	0
7	513	1.858803867847	0.075
7	520	1.860499867847	0.005
7	520	1.860499867847	0
7	520	1.860499867847	5e-006
7	520	1.860499867847	5e-006
7	520	1.860499867847	5e-006
7	546	2.057353189102	0
7	546	2.057353189102	0.05
7	555	2.059049189102	5e-006
7	555	2.059049189102	5e-006
7	556	2.059049189102	0
7	556	2.059049189102	0
7	556	2.059049189102	0.005
7	561	2.059241189102	0
7	561	2.059241189102	0.075
7	567	2.059593189102	0.005
7	567	2.059593189102	0
7	567	2.059593189102	5e-006
7	567	2.059593189102	5e-006
7	567	2.059593189102	5e-006
7	591	2.384701929493	0
7	591	2.384701929493	0.05
7	601	2.386397929493	5e-006
7	601	2.386397929493	5e-006
7	602	2.386397929493	0
7	602	2.386397929493	0
7	602	2.386397929493	0.005
7	605	2.386589929493	0
7	605	2.386589929493	0.075
7	611	2.386941929493	0.005
7	611	2.386941929493	0
7	611	2.386941929493	5e-006
7	611	2.386941929493	5e-006
7	611	2.386941929493	5e-006
8	0	0	0
8	0	0	0
8	0	0	2
8	167	0.847379737257	3
8	176	0.849267737257	2
8	432	1.848339737257	3
8	440	1.850227737257	2
9	0	0	0
9	0	0	0
9	0	0	0
9	0	0	5e-006
9	13	0.057033207452	0
9	13	0.057033207452	0.05
9	24	0.058729207452	5e-006
9	24	0.058729207452	5e-006
9	30	0.058921319692	0
9	30	0.058921319692	0.05
9	38	0.059273319692	5e-006
9	38	0.059273319692	5e-006
9	57	0.386301886847	0
9	57	0.386301886847	0.05
9	66	0.387997886847	5e-006
9	66	0.387997886847	5e-006
9	75	0.388190060083	0
9	75	0.388190060083	0.05
9	83	0.388542060083	5e-006
9	83	0.388542060083	5e-006
9	102	0.530815079039	0
9	102	0.530815079039	0.05
9	112	0.532511079039	5e-006
9	112	0.532511079039	5e-006
9	120	0.532703140183	0
9	120	0.532703140183	0.05
9	128	0.533055140183	5e-006
9	128	0.533055140183	5e-006
9	146	0.84490587468	0
9	146	0.84490587468	0.05
9	154	0.84660187468	5e-006
9	154	0.84660187468	5e-006
9	167	0.847379737257	0
9	167	0.847379737257	0
9	167	0.847379737257	0.005
9	168	0.847571737257	0
9	168	0.847571737257	0.075
9	176	0.849267737257	0.005
9	176	0.849267737257	0
9	176	0.849267737257	5e-006
9	176	0.849267737257	5e-006
9	176	0.849267737257	5e-006
9	192	0.849459998437	0
9	192	0.849459998437	0.05
9	200	0.849811998437	5e-006
9	200	0.849811998437	5e-006
9	211	0.851731998437	0
9	211	0.851731998437	0.05
9	219	0.853427998437	5e-006
9	219	0.853427998437	5e-006
9	231	0.856227998437	0
9	231	0.856227998437	0.05
9	240	0.857923998437	5e-006
9	240	0.857923998437	5e-006
9	254	0.861043998437	0
9	254	0.861043998437	0.05
9	262	0.862739998437	5e-006
9	262	0.862739998437	5e-006
9	283	1.057033207452	0
9	283	1.057033207452	0.05
9	294	1.058729207452	5e-006
9	294	1.058729207452	5e-006
9	300	1.058921319692	0
9	300	1.058921319692	0.05
9	308	1.059273319692	5e-006
9	308	1.059273319692	5e-006
9	326	1.385661886847	0
9	326	1.385661886847	0.05
9	335	1.387357886847	5e-006
9	335	1.387357886847	5e-006
9	344	1.387550060083	0
9	344	1.387550060083	0.05
9	352	1.387902060083	5e-006
9	352	1.387902060083	5e-006
9	370	1.529535079039	0
9	370	1.529535079039	0.05
9	380	1.531231079039	5e-006
9	380	1.531231079039	5e-006
9	388	1.531423140183	0
9	388	1.531423140183	0.05
9	396	1.531775140183	5e-006
9	396	1.531775140183	5e-006
9	413	1.84618587468	0
9	413	1.84618587468	0.05
9	425	1.84788187468	5e-006
9	425	1.84788187468	5e-006
9	432	1.848339737257	0
9	432	1.848339737257	0
9	432	1.848339737257	0.005
9	434	1.848531737257	0
9	434	1.848531737257	0.075
9	440	1.850227737257	0.005
9	440	1.850227737257	0
9	440	1.850227737257	5e-006
9	440	1.850227737257	5e-006
9	440	1.850227737257	5e-006
9	456	1.850419998437	0
9	456	1.850419998437	0.05
9	464	1.850771998437	5e-006
9	464	1.850771998437	5e-006
9	475	1.853331998437	0
9	475	1.853331998437	0.05
9	483	1.855027998437	5e-006
9	483	1.855027998437	5e-006
9	495	1.855907998437	0
9	495	1.855907998437	0.05
9	503	1.857603998437	5e-006
9	503	1.857603998437	5e-006
9	516	1.858803998437	0
9	516	1.858803998437	0.05
9	525	1.860499998437	5e-006
9	525	1.860499998437	5e-006
9	547	2.057353207452	0
9	547	2.057353207452	0.05
9	558	2.059049207452	5e-006
9	558	2.059049207452	5e-006
9	564	2.059241319692	0
9	564	2.059241319692	0.05
9	572	2.059593319692	5e-006
9	572	2.059593319692	5e-006
9	590	2.384701886847	0
9	590	2.384701886847	0.05
9	599	2.386397886847	5e-006
9	599	2.386397886847	5e-006
9	608	2.386590060083	0
9	608	2.386590060083	0.05
9	616	2.386942060083	5e-006
9	616	2.386942060083	5e-006
10	0	0	0
10	0	0	0
10	0	0	2
10	52	0.386109708223	3
10	59	0.387997708223	2
10	321	1.385469708223	3
10	328	1.387357708223	2
10	585	2.384509708223	3
10	592	2.386397708223	2
11	0	0	0
11	0	0	0
11	0	0	0
11	0	0	5e-006
11	9	0.057033077464	0
11	9	0.057033077464	0.05
11	15	0.058729077464	5e-006
11	15	0.058729077464	5e-006
11	32	0.058921410372	0
11	32	0.058921410372	0.05
11	42	0.059273410372	5e-006
11	42	0.059273410372	5e-006
11	52	0.386109708223	0
11	52	0.386109708223	0
11	52	0.386109708223	0.005
11	53	0.386301708223	0
11	53	0.386301708223	0.075
11	59	0.387997708223	0.005
11	59	0.387997708223	0
11	59	0.387997708223	5e-006
11	59	0.387997708223	5e-006
11	59	0.387997708223	5e-006
11	77	0.388190150763	0
11	77	0.388190150763	0.05
11	87	0.388542150763	5e-006
11	87	0.388542150763	5e-006
11	103	0.530815080452	0
11	103	0.530815080452	0.05
11	114	0.532511080452	5e-006
11	114	0.532511080452	5e-006
11	122	0.532703230863	0
11	122	0.532703230863	0.05
11	132	0.533055230863	5e-006
11	132	0.533055230863	5e-006
11	148	0.84490596536	0
11	148	0.84490596536	0.05
11	158	0.84660196536	5e-006
11	158	0.84660196536	5e-006
11	172	0.847571915881	0
11	172	0.847571915881	0.05
11	184	0.849267915881	5e-006
11	184	0.849267915881	5e-006
11	194	0.849460089117	0
11	194	0.849460089117	0.05
11	204	0.849812089117	5e-006
11	204	0.849812089117	5e-006
11	213	0.851732089117	0
11	213	0.851732089117	0.05
11	223	0.853428089117	5e-006
11	223	0.853428089117	5e-006
11	233	0.856228089117	0
11	233	0.856228089117	0.05
11	244	0.857924089117	5e-006
11	244	0.857924089117	5e-006
11	256	0.861044089117	0
11	256	0.861044089117	0.05
11	266	0.862740089117	5e-006
11	266	0.862740089117	5e-006
11	279	1.057033077464	0
11	279	1.057033077464	0.05
11	285	1.058729077464	5e-006
11	285	1.058729077464	5e-006
11	302	1.058921410372	0
11	302	1.058921410372	0.05
11	312	1.059273410372	5e-006
11	312	1.059273410372	5e-006
11	321	1.385469708223	0
11	321	1.385469708223	0
11	321	1.385469708223	0.005
11	322	1.385661708223	0
11	322	1.385661708223	0.075
11	328	1.387357708223	0.005
11	328	1.387357708223	0
11	328	1.387357708223	5e-006
11	328	1.387357708223	5e-006
11	328	1.387357708223	5e-006
11	346	1.387550150763	0
11	346	1.387550150763	0.05
11	356	1.387902150763	5e-006
11	356	1.387902150763	5e-006
11	371	1.529535080452	0
11	371	1.529535080452	0.05
11	382	1.531231080452	5e-006
11	382	1.531231080452	5e-006
11	390	1.531423230863	0
11	390	1.531423230863	0.05
11	400	1.531775230863	5e-006
11	400	1.531775230863	5e-006
11	415	1.84618596536	0
11	415	1.84618596536	0.05
11	429	1.84788196536	5e-006
11	429	1.84788196536	5e-006
11	438	1.848531915881	0
11	438	1.848531915881	0.05
11	448	1.850227915881	5e-006
11	448	1.850227915881	5e-006
11	458	1.850420089117	0
11	458	1.850420089117	0.05
11	468	1.850772089117	5e-006
11	468	1.850772089117	5e-006
11	477	1.853332089117	0
11	477	1.853332089117	0.05
11	487	1.855028089117	5e-006
11	487	1.855028089117	5e-006
11	497	1.855908089117	0
11	497	1.855908089117	0.05
11	507	1.857604089117	5e-006
11	507	1.857604089117	5e-006
11	518	1.858804089117	0
11	518	1.858804089117	0.05
11	529	1.860500089117	5e-006
11	529	1.860500089117	5e-006
11	543	2.057353077464	0
11	543	2.057353077464	0.05
11	549	2.059049077464	5e-006
11	549	2.059049077464	5e-006
11	566	2.059241410372	0
11	566	2.059241410372	0.05
11	576	2.059593410372	5e-006
11	576	2.059593410372	5e-006
11	585	2.384509708223	0
11	585	2.384509708223	0
11	585	2.384509708223	0.005
11	586	2.384701708223	0
11	586	2.384701708223	0.075
11	592	2.386397708223	0.005
11	592	2.386397708223	0
11	592	2.386397708223	5e-006
11	592	2.386397708223	5e-006
11	592	2.386397708223	5e-006
11	610	2.386590150763	0
11	610	2.386590150763	0.05
11	620	2.386942150763	5e-006
11	620	2.386942150763	5e-006
12	0	0	0
12	0	0	0
12	0	0	2
12	7	0.056840975726	3
12	14	0.058728975726	2
12	277	1.056840975726	3
12	284	1.058728975726	2
12	541	2.057160975726	3
12	548	2.059048975726	2
13	0	0	0
13	0	0	0
13	0	0	0
13	0	0	5e-006
13	7	0.056840975726	0
13	7	0.056840975726	0
13	7	0.056840975726	0.005
13	8	0.057032975726	0
13	8	0.057032975726	0.075
13	14	0.058728975726	0.005
13	14	0.058728975726	0
13	14	0.058728975726	5e-006
13	14	0.058728975726	5e-006
13	14	0.058728975726	5e-006
13	31	0.058921402478	0
13	31	0.058921402478	0.05
13	40	0.059273402478	5e-006
13	40	0.059273402478	5e-006
13	55	0.386301809961	0
13	55	0.386301809961	0.05
13	62	0.387997809961	5e-006
13	62	0.387997809961	5e-006
13	76	0.388190142869	0
13	76	0.388190142869	0.05
13	85	0.388542142869	5e-006
13	85	0.388542142869	5e-006
13	101	0.530815048751	0
13	101	0.530815048751	0.05
13	110	0.532511048751	5e-006
13	110	0.532511048751	5e-006
13	121	0.532703222969	0
13	121	0.532703222969	0.05
13	130	0.533055222969	5e-006
13	130	0.533055222969	5e-006
13	147	0.844905957466	0
13	147	0.844905957466	0.05
13	156	0.846601957466	5e-006
13	156	0.846601957466	5e-006
13	173	0.847571968983	0
13	173	0.847571968983	0.05
13	186	0.849267968983	5e-006
13	186	0.849267968983	5e-006
13	193	0.849460081223	0
13	193	0.849460081223	0.05
13	202	0.849812081223	5e-006
13	202	0.849812081223	5e-006
13	212	0.851732081223	0
13	212	0.851732081223	0.05
13	221	0.853428081223	5e-006
13	221	0.853428081223	5e-006
13	232	0.856228081223	0
13	232	0.856228081223	0.05
13	242	0.857924081223	5e-006
13	242	0.857924081223	5e-006
13	255	0.861044081223	0
13	255	0.861044081223	0.05
13	264	0.862740081223	5e-006
13	264	0.862740081223	5e-006
13	277	1.056840975726	0
13	277	1.056840975726	0
13	277	1.056840975726	0.005
13	278	1.057032975726	0
13	278	1.057032975726	0.075
13	284	1.058728975726	0.005
13	284	1.058728975726	0
13	284	1.058728975726	5e-006
13	284	1.058728975726	5e-006
13	284	1.058728975726	5e-006
13	301	1.058921402478	0
13	301	1.058921402478	0.05
13	310	1.059273402478	5e-006
13	310	1.059273402478	5e-006
13	324	1.385661809961	0
13	324	1.385661809961	0.05
13	331	1.387357809961	5e-006
13	331	1.387357809961	5e-006
13	345	1.387550142869	0
13	345	1.387550142869	0.05
13	354	1.387902142869	5e-006
13	354	1.387902142869	5e-006
13	369	1.529535048751	0
13	369	1.529535048751	0.05
13	378	1.531231048751	5e-006
13	378	1.531231048751	5e-006
13	389	1.531423222969	0
13	389	1.531423222969	0.05
13	398	1.531775222969	5e-006
13	398	1.531775222969	5e-006
13	414	1.846185957466	0
13	414	1.846185957466	0.05
13	427	1.847881957466	5e-006
13	427	1.847881957466	5e-006
13	439	1.848531968983	0
13	439	1.848531968983	0.05
13	450	1.850227968983	5e-006
13	450	1.850227968983	5e-006
13	457	1.850420081223	0
13	457	1.850420081223	0.05
13	466	1.850772081223	5e-006
13	466	1.850772081223	5e-006
13	476	1.853332081223	0
13	476	1.853332081223	0.05
13	485	1.855028081223	5e-006
13	485	1.855028081223	5e-006
13	496	1.855908081223	0
13	496	1.855908081223	0.05
13	505	1.857604081223	5e-006
13	505	1.857604081223	5e-006
13	517	1.858804081223	0
13	517	1.858804081223	0.05
13	527	1.860500081223	5e-006
13	527	1.860500081223	5e-006
13	541	2.057160975726	0
13	541	2.057160975726	0
13	541	2.057160975726	0.005
13	542	2.057352975726	0
13	542	2.057352975726	0.075
13	548	2.059048975726	0.005
13	548	2.059048975726	0
13	548	2.059048975726	5e-006
13	548	2.059048975726	5e-006
13	548	2.059048975726	5e-006
13	565	2.059241402478	0
13	565	2.059241402478	0.05
13	574	2.059593402478	5e-006
13	574	2.059593402478	5e-006
13	588	2.384701809961	0
13	588	2.384701809961	0.05
13	595	2.386397809961	5e-006
13	595	2.386397809961	5e-006
13	609	2.386590142869	0
13	609	2.386590142869	0.05
13	618	2.386942142869	5e-006
13	618	2.386942142869	5e-006
14	0	0	0
14	0	0	0
14	0	0	2
15	0	0	0
15	0	0	0
15	0	0	0
15	0	0	5e-006
15	11	0.05703310376	0
15	11	0.05703310376	0.05
15	19	0.05872910376	5e-006
15	19	0.05872910376	5e-006
15	29	0.058921311388	0
15	29	0.058921311388	0.05
15	36	0.059273311388	5e-006
15	36	0.059273311388	5e-006
15	54	0.386301808389	0
15	54	0.386301808389	0.05
15	60	0.387997808389	5e-006
15	60	0.387997808389	5e-006
15	74	0.388190051779	0
15	74	0.388190051779	0.05
15	81	0.388542051779	5e-006
15	81	0.388542051779	5e-006
15	99	0.530815002664	0
15	99	0.530815002664	0.05
15	105	0.532511002664	5e-006
15	105	0.532511002664	5e-006
15	119	0.532703131879	0
15	119	0.532703131879	0.05
15	126	0.533055131879	5e-006
15	126	0.533055131879	5e-006
15	145	0.844905866376	0
15	145	0.844905866376	0.05
15	152	0.846601866376	5e-006
15	152	0.846601866376	5e-006
15	169	0.84757184136	0
15	169	0.84757184136	0.05
15	177	0.84926784136	5e-006
15	177	0.84926784136	5e-006
15	191	0.849459990133	0
15	191	0.849459990133	0.05
15	198	0.849811990133	5e-006
15	198	0.849811990133	5e-006
15	210	0.851731990133	0
15	210	0.851731990133	0.05
15	217	0.853427990133	5e-006
15	217	0.853427990133	5e-006
15	230	0.856227990133	0
15	230	0.856227990133	0.05
15	238	0.857923990133	5e-006
15	238	0.857923990133	5e-006
15	253	0.861043990133	0
15	253	0.861043990133	0.05
15	260	0.862739990133	5e-006
15	260	0.862739990133	5e-006
15	281	1.05703310376	0
15	281	1.05703310376	0.05
15	289	1.05872910376	5e-006
15	289	1.05872910376	5e-006
15	299	1.058921311388	0
15	299	1.058921311388	0.05
15	306	1.059273311388	5e-006
15	306	1.059273311388	5e-006
15	323	1.385661808389	0
15	323	1.385661808389	0.05
15	329	1.387357808389	5e-006
15	329	1.387357808389	5e-006
15	343	1.387550051779	0
15	343	1.387550051779	0.05
15	350	1.387902051779	5e-006
15	350	1.387902051779	5e-006
15	367	1.529535002664	0
15	367	1.529535002664	0.05
15	373	1.531231002664	5e-006
15	373	1.531231002664	5e-006
15	387	1.531423131879	0
15	387	1.531423131879	0.05
15	394	1.531775131879	5e-006
15	394	1.531775131879	5e-006
15	412	1.846185866376	0
15	412	1.846185866376	0.05
15	423	1.847881866376	5e-006
15	423	1.847881866376	5e-006
15	435	1.84853184136	0
15	435	1.84853184136	0.05
15	441	1.85022784136	5e-006
15	441	1.85022784136	5e-006
15	455	1.850419990133	0
15	455	1.850419990133	0.05
15	462	1.850771990133	5e-006
15	462	1.850771990133	5e-006
15	474	1.853331990133	0
15	474	1.853331990133	0.05
15	481	1.855027990133	5e-006
15	481	1.855027990133	5e-006
15	494	1.855907990133	0
15	494	1.855907990133	0.05
15	501	1.857603990133	5e-006
15	501	1.857603990133	5e-006
15	515	1.858803990133	0
15	515	1.858803990133	0.05
15	523	1.860499990133	5e-006
15	523	1.860499990133	5e-006
15	545	2.05735310376	0
15	545	2.05735310376	0.05
15	553	2.05904910376	5e-006
15	553	2.05904910376	5e-006
15	563	2.059241311388	0
15	563	2.059241311388	0.05
15	570	2.059593311388	5e-006
15	570	2.059593311388	5e-006
15	587	2.384701808389	0
15	587	2.384701808389	0.05
15	593	2.386397808389	5e-006
15	593	2.386397808389	5e-006
15	607	2.386590051779	0
15	607	2.386590051779	0.05
15	614	2.386942051779	5e-006
15	614	2.386942051779	5e-006
16	0	0	0
16	0	0	0
16	0	0	2
16	97	0.530622921532	3
16	104	0.532510921532	2
16	365	1.529342921532	3
16	372	1.531230921532	2
17	0	0	0
17	0	0	0
17	0	0	0
17	0	0	5e-006
17	10	0.057033102945	0
17	10	0.057033102945	0.05
17	17	0.058729102945	5e-006
17	17	0.058729102945	5e-006
17	28	0.058921277163	0
17	28	0.058921277163	0.05
17	34	0.059273277163	5e-006
17	34	0.059273277163	5e-006
17	56	0.386301867143	0
17	56	0.386301867143	0.05
17	64	0.387997867143	5e-006
17	64	0.387997867143	5e-006
17	73	0.388190017554	0
17	73	0.388190017554	0.05
17	79	0.388542017554	5e-006
17	79	0.388542017554	5e-006
17	97	0.530622921532	0
17	97	0.530622921532	0
17	97	0.530622921532	0.005
17	98	0.530814921532	0
17	98	0.530814921532	0.075
17	104	0.532510921532	0.005
17	104	0.532510921532	0
17	104	0.532510921532	5e-006
17	104	0.532510921532	5e-006
17	104	0.532510921532	5e-006
17	118	0.532703097654	0
17	118	0.532703097654	0.05
17	124	0.533055097654	5e-006
17	124	0.533055097654	5e-006
17	144	0.844905832151	0
17	144	0.844905832151	0.05
17	150	0.846601832151	5e-006
17	150	0.846601832151	5e-006
17	171	0.847571894764	0
17	171	0.847571894764	0.05
17	182	0.849267894764	5e-006
17	182	0.849267894764	5e-006
17	190	0.849459955908	0
17	190	0.849459955908	0.05
17	196	0.849811955908	5e-006
17	196	0.849811955908	5e-006
17	209	0.851731955908	0
17	209	0.851731955908	0.05
17	215	0.853427955908	5e-006
17	215	0.853427955908	5e-006
17	229	0.856227955908	0
17	229	0.856227955908	0.05
17	236	0.857923955908	5e-006
17	236	0.857923955908	5e-006
17	252	0.861043955908	0
17	252	0.861043955908	0.05
17	258	0.862739955908	5e-006
17	258	0.862739955908	5e-006
17	280	1.057033102945	0
17	280	1.057033102945	0.05
17	287	1.058729102945	5e-006
17	287	1.058729102945	5e-006
17	298	1.058921277163	0
17	298	1.058921277163	0.05
17	304	1.059273277163	5e-006
17	304	1.059273277163	5e-006
17	325	1.385661867143	0
17	325	1.385661867143	0.05
17	333	1.387357867143	5e-006
17	333	1.387357867143	5e-006
17	342	1.387550017554	0
17	342	1.387550017554	0.05
17	348	1.387902017554	5e-006
17	348	1.387902017554	5e-006
17	365	1.529342921532	0
17	365	1.529342921532	0
17	365	1.529342921532	0.005
17	366	1.529534921532	0
17	366	1.529534921532	0.075
17	372	1.531230921532	0.005
17	372	1.531230921532	0
17	372	1.531230921532	5e-006
17	372	1.531230921532	5e-006
17	372	1.531230921532	5e-006
17	386	1.531423097654	0
17	386	1.531423097654	0.05
17	392	1.531775097654	5e-006
17	392	1.531775097654	5e-006
17	411	1.846185832151	0
17	411	1.846185832151	0.05
17	421	1.847881832151	5e-006
17	421	1.847881832151	5e-006
17	437	1.848531894764	0
17	437	1.848531894764	0.05
17	446	1.850227894764	5e-006
17	446	1.850227894764	5e-006
17	454	1.850419955908	0
17	454	1.850419955908	0.05
17	460	1.850771955908	5e-006
17	460	1.850771955908	5e-006
17	473	1.853331955908	0
17	473	1.853331955908	0.05
17	479	1.855027955908	5e-006
17	479	1.855027955908	5e-006
17	493	1.855907955908	0
17	493	1.855907955908	0.05
17	499	1.857603955908	5e-006
17	499	1.857603955908	5e-006
17	514	1.858803955908	0
17	514	1.858803955908	0.05
17	521	1.860499955908	5e-006
17	521	1.860499955908	5e-006
17	544	2.057353102945	0
17	544	2.057353102945	0.05
17	551	2.059049102945	5e-006
17	551	2.059049102945	5e-006
17	562	2.059241277163	0
17	562	2.059241277163	0.05
17	568	2.059593277163	5e-006
17	568	2.059593277163	5e-006
17	589	2.384701867143	0
17	589	2.384701867143	0.05
17	597	2.386397867143	5e-006
17	597	2.386397867143	5e-006
17	606	2.386590017554	0
17	606	2.386590017554	0.05
17	612	2.386942017554	5e-006
17	612	2.386942017554	5e-006
18	0	0	1
18	12	0.057033189102	3
18	21	0.058729189102	1
18	22	0.058729189102	0
18	33	0.059273189102	1
18	58	0.386301929493	3
18	68	0.387997929493	1
18	69	0.387997929493	0
18	78	0.388541929493	1
18	100	0.530815009593	3
18	107	0.532511009593	1
18	108	0.532511009593	0
18	123	0.533055009593	1
18	142	0.84471374409	0
18	149	0.84660174409	1
18	170	0.847571867847	3
18	179	0.849267867847	1
18	180	0.849267867847	0
18	195	0.849811867847	1
18	207	0.851539867847	0
18	214	0.853427867847	1
18	227	0.856035867847	0
18	235	0.857923867847	1
18	250	0.860851867847	0
18	257	0.862739867847	1
18	282	1.057033189102	3
18	291	1.058729189102	1
18	292	1.058729189102	0
18	303	1.059273189102	1
18	327	1.385661929493	3
18	337	1.387357929493	1
18	338	1.387357929493	0
18	347	1.387901929493	1
18	368	1.529535009593	3
18	375	1.531231009593	1
18	376	1.531231009593	0
18	391	1.531775009593	1
18	409	1.84599374409	0
18	420	1.84788174409	1
18	436	1.848531867847	3
18	443	1.850227867847	1
18	444	1.850227867847	0
18	459	1.850771867847	1
18	471	1.853139867847	0
18	478	1.855027867847	1
18	491	1.855715867847	0
18	498	1.857603867847	1
18	512	1.858611867847	0
18	520	1.860499867847	1
18	546	2.057353189102	3
18	555	2.059049189102	1
18	556	2.059049189102	0
18	567	2.059593189102	1
18	591	2.384701929493	3
18	601	2.386397929493	1
18	602	2.386397929493	0
18	611	2.386941929493	1
19	0	0	1
19	13	0.057033207452	3
19	24	0.058729207452	1
19	30	0.058921319692	3
19	38	0.059273319692	1
19	57	0.386301886847	3
19	66	0.387997886847	1
19	75	0.388190060083	3
19	83	0.388542060083	1
19	102	0.530815079039	3
19	112	0.532511079039	1
19	120	0.532703140183	3
19	128	0.533055140183	1
19	146	0.84490587468	3
19	154	0.84660187468	1
19	167	0.847379737257	0
19	176	0.849267737257	1
19	192	0.849459998437	3
19	200	0.849811998437	1
19	211	0.851731998437	3
19	219	0.853427998437	1
19	231	0.856227998437	3
19	240	0.857923998437	1
19	254	0.861043998437	3
19	262	0.862739998437	1
19	283	1.057033207452	3
19	294	1.058729207452	1
19	300	1.058921319692	3
19	308	1.059273319692	1
19	326	1.385661886847	3
19	335	1.387357886847	1
19	344	1.387550060083	3
19	352	1.387902060083	1
19	370	1.529535079039	3
19	380	1.531231079039	1
19	388	1.531423140183	3
19	396	1.531775140183	1
19	413	1.84618587468	3
19	425	1.84788187468	1
19	432	1.848339737257	0
19	440	1.850227737257	1
19	456	1.850419998437	3
19	464	1.850771998437	1
19	475	1.853331998437	3
19	483	1.855027998437	1
19	495	1.855907998437	3
19	503	1.857603998437	1
19	516	1.858803998437	3
19	525	1.860499998437	1
19	547	2.057353207452	3
19	558	2.059049207452	1
19	564	2.059241319692	3
19	572	2.059593319692	1
19	590	2.384701886847	3
19	599	2.386397886847	1
19	608	2.386590060083	3
19	616	2.386942060083	1
20	0	0	1
20	9	0.057033077464	3
20	15	0.058729077464	1
20	32	0.058921410372	3
20	42	0.059273410372	1
20	52	0.386109708223	0
20	59	0.387997708223	1
20	77	0.388190150763	3
20	87	0.388542150763	1
20	103	0.530815080452	3
20	114	0.532511080452	1
20	122	0.532703230863	3
20	132	0.533055230863	1
20	148	0.84490596536	3
20	158	0.84660196536	1
20	172	0.847571915881	3
20	184	0.849267915881	1
20	194	0.849460089117	3
20	204	0.849812089117	1
20	213	0.851732089117	3
20	223	0.853428089117	1
20	233	0.856228089117	3
20	244	0.857924089117	1
20	256	0.861044089117	3
20	266	0.862740089117	1
20	279	1.057033077464	3
20	285	1.058729077464	1
20	302	1.058921410372	3
20	312	1.059273410372	1
20	321	1.385469708223	0
20	328	1.387357708223	1
20	346	1.387550150763	3
20	356	1.387902150763	1
20	371	1.529535080452	3
20	382	1.531231080452	1
20	390	1.531423230863	3
20	400	1.531775230863	1
20	415	1.84618596536	3
20	429	1.84788196536	1
20	438	1.848531915881	3
20	448	1.850227915881	1
20	458	1.850420089117	3
20	468	1.850772089117	1
20	477	1.853332089117	3
20	487	1.855028089117	1
20	497	1.855908089117	3
20	507	1.857604089117	1
20	518	1.858804089117	3
20	529	1.860500089117	1
20	543	2.057353077464	3
20	549	2.059049077464	1
20	566	2.059241410372	3
20	576	2.059593410372	1
20	585	2.384509708223	0
20	592	2.386397708223	1
20	610	2.386590150763	3
20	620	2.386942150763	1
21	0	0	1
21	7	0.056840975726	0
21	14	0.058728975726	1
21	31	0.058921402478	3
21	40	0.059273402478	1
21	55	0.386301809961	3
21	62	0.387997809961	1
21	76	0.388190142869	3
21	85	0.388542142869	1
21	101	0.530815048751	3
21	110	0.532511048751	1
21	121	0.532703222969	3
21	130	0.533055222969	1
21	147	0.844905957466	3
21	156	0.846601957466	1
21	173	0.847571968983	3
21	186	0.849267968983	1
21	193	0.849460081223	3
21	202	0.849812081223	1
21	212	0.851732081223	3
21	221	0.853428081223	1
21	232	0.856228081223	3
21	242	0.857924081223	1
21	255	0.861044081223	3
21	264	0.862740081223	1
21	277	1.056840975726	0
21	284	1.058728975726	1
21	301	1.058921402478	3
21	310	1.059273402478	1
21	324	1.385661809961	3
21	331	1.387357809961	1
21	345	1.387550142869	3
21	354	1.387902142869	1
21	369	1.529535048751	3
21	378	1.531231048751	1
21	389	1.531423222969	3
21	398	1.531775222969	1
21	414	1.846185957466	3
21	427	1.847881957466	1
21	439	1.848531968983	3
21	450	1.850227968983	1
21	457	1.850420081223	3
21	466	1.850772081223	1
21	476	1.853332081223	3
21	485	1.855028081223	1
21	496	1.855908081223	3
21	505	1.857604081223	1
21	517	1.858804081223	3
21	527	1.860500081223	1
21	541	2.057160975726	0
21	548	2.059048975726	1
21	565	2.059241402478	3
21	574	2.059593402478	1
21	588	2.384701809961	3
21	595	2.386397809961	1
21	609	2.386590142869	3
21	618	2.386942142869	1
22	0	0	1
22	11	0.05703310376	3
22	19	0.05872910376	1
22	29	0.058921311388	3
22	36	0.059273311388	1
22	54	0.386301808389	3
22	60	0.387997808389	1
22	74	0.388190051779	3
22	81	0.388542051779	1
22	99	0.530815002664	3
22	105	0.532511002664	1
22	119	0.532703131879	3
22	126	0.533055131879	1
22	145	0.844905866376	3
22	152	0.846601866376	1
22	169	0.84757184136	3
22	177	0.84926784136	1
22	191	0.849459990133	3
22	198	0.849811990133	1
22	210	0.851731990133	3
22	217	0.853427990133	1
22	230	0.856227990133	3
22	238	0.857923990133	1
22	253	0.861043990133	3
22	260	0.862739990133	1
22	281	1.05703310376	3
22	289	1.05872910376	1
22	299	1.058921311388	3
22	306	1.059273311388	1
22	323	1.385661808389	3
22	329	1.387357808389	1
22	343	1.387550051779	3
22	350	1.387902051779	1
22	367	1.529535002664	3
22	373	1.531231002664	1
22	387	1.531423131879	3
22	394	1.531775131879	1
22	412	1.846185866376	3
22	423	1.847881866376	1
22	435	1.84853184136	3
22	441	1.85022784136	1
22	455	1.850419990133	3
22	462	1.850771990133	1
22	474	1.853331990133	3
22	481	1.855027990133	1
22	494	1.855907990133	3
22	501	1.857603990133	1
22	515	1.858803990133	3
22	523	1.860499990133	1
22	545	2.05735310376	3
22	553	2.05904910376	1
22	563	2.059241311388	3
22	570	2.059593311388	1
22	587	2.384701808389	3
22	593	2.386397808389	1
22	607	2.386590051779	3
22	614	2.386942051779	1
23	0	0	1
23	10	0.057033102945	3
23	17	0.058729102945	1
23	28	0.058921277163	3
23	34	0.059273277163	1
23	56	0.386301867143	3
23	64	0.387997867143	1
23	73	0.388190017554	3
23	79	0.388542017554	1
23	97	0.530622921532	0
23	104	0.532510921532	1
23	118	0.532703097654	3
23	124	0.533055097654	1
23	144	0.844905832151	3
23	150	0.846601832151	1
23	171	0.847571894764	3
23	182	0.849267894764	1
23	190	0.849459955908	3
23	196	0.849811955908	1
23	209	0.851731955908	3
23	215	0.853427955908	1
23	229	0.856227955908	3
23	236	0.857923955908	1
23	252	0.861043955908	3
23	258	0.862739955908	1
23	280	1.057033102945	3
23	287	1.058729102945	1
23	298	1.058921277163	3
23	304	1.059273277163	1
23	325	1.385661867143	3
23	333	1.387357867143	1
23	342	1.387550017554	3
23	348	1.387902017554	1
23	365	1.529342921532	0
23	372	1.531230921532	1
23	386	1.531423097654	3
23	392	1.531775097654	1
23	411	1.846185832151	3
23	421	1.847881832151	1
23	437	1.848531894764	3
23	446	1.850227894764	1
23	454	1.850419955908	3
23	460	1.850771955908	1
23	473	1.853331955908	3
23	479	1.855027955908	1
23	493	1.855907955908	3
23	499	1.857603955908	1
23	514	1.858803955908	3
23	521	1.860499955908	1
23	544	2.057353102945	3
23	551	2.059049102945	1
23	562	2.059241277163	3
23	568	2.059593277163	1
23	589	2.384701867143	3
23	597	2.386397867143	1
23	606	2.386590017554	3
23	612	2.386942017554	1
24	1	0.056712975726	10
24	272	1.056712975726	10
24	536	2.056712975726	10
25	3	0.056712975726	18
25	273	1.056712975726	18
25	537	2.056712975726	18
26	7	0.056840975726	-2.8420487863e-007
26	8	0.057032975726	-1.24420487863e-006
26	14	0.058728975726	-0.00012844420487863
26	31	0.058921402478	-0.00012844516701239
26	40	0.059273402478	-0.00014604516701239
26	55	0.386301809961	-0.00014768030904981
26	62	0.387997809961	-0.00023248030904981
26	76	0.388190142869	-0.00023248127071434
26	85	0.388542142869	-0.00025008127071435
26	101	0.530815048751	-0.00025079263524376
26	110	0.532511048751	-0.00033559263524376
26	121	0.532703222969	-0.00033559359611485
26	130	0.533055222969	-0.00035319359611485
26	147	0.844905957466	-0.00035475284978733
26	156	0.846601957466	-0.00043955284978733
26	173	0.847571968983	-0.00043955769984492
26	186	0.849267968983	-0.00052435769984492
26	193	0.849460081223	-0.00052435866040612
26	202	0.849812081223	-0.00054195866040612
26	212	0.851732081223	-0.00054196826040612
26	221	0.853428081223	-0.00062676826040612
26	232	0.856228081223	-0.00062678226040612
26	242	0.857924081223	-0.00071158226040612
26	255	0.861044081223	-0.00071159786040612
26	264	0.862740081223	-0.00079639786040612
26	277	1.056840975726	-0.00079736836487863
26	278	1.057032975726	-0.00079832836487863
26	284	1.058728975726	-0.00092552836487863
26	301	1.058921402478	-0.00092552932701239
26	310	1.059273402478	-0.00094312932701239
26	324	1.385661809961	-0.00094476126904981
26	331	1.387357809961	-0.0010295612690498
26	345	1.387550142869	-0.0010295622307143
26	354	1.387902142869	-0.0010471622307143
26	369	1.529535048751	-0.0010478703952438
26	378	1.531231048751	-0.0011326703952438
26	389	1.531423222969	-0.0011326713561148
26	398	1.531775222969	-0.0011502713561148
26	414	1.846185957466	-0.0011518434097873
26	427	1.847881957466	-0.0012366434097873
26	439	1.848531968983	-0.0012366466598449
26	450	1.850227968983	-0.0013214466598449
26	457	1.850420081223	-0.0013214476204061
26	466	1.850772081223	-0.0013390476204061
26	476	1.853332081223	-0.0013390604204061
26	485	1.855028081223	-0.0014238604204061
26	496	1.855908081223	-0.0014238648204061
26	505	1.857604081223	-0.0015086648204061
26	517	1.858804081223	-0.0015086708204061
26	527	1.860500081223	-0.0015934708204061
26	541	2.057160975726	-0.0015944541248786
26	542	2.057352975726	-0.0015954141248786
26	548	2.059048975726	-0.0017226141248786
26	565	2.059241402478	-0.0017226150870124
26	574	2.059593402478	-0.0017402150870124
26	588	2.384701809961	-0.0017418406290498
26	595	2.386397809961	-0.0018266406290498
26	609	2.386590142869	-0.0018266415907143
26	618	2.386942142869	-0.0018442415907143
27	7	0.056840975726	1
27	8	0.057032975726	2
27	14	0.058728975726	1
27	14	0.058728975726	0
27	277	1.056840975726	1
27	278	1.057032975726	2
27	284	1.058728975726	1
27	284	1.058728975726	0
27	541	2.057160975726	1
27	542	2.057352975726	2
27	548	2.059048975726	1
27	548	2.059048975726	0
28	9	0.057033077464	-2.8516538732e-007
28	15	0.058729077464	-8.508516538732e-005
28	32	0.058921410372	-8.508612705186e-005
28	42	0.059273410372	-0.00010268612705186
28	52	0.386109708223	-0.00010432030854111
28	53	0.386301708223	-0.00010528030854112
28	59	0.387997708223	-0.00023248030854111
28	77	0.388190150763	-0.00023248127075381
28	87	0.388542150763	-0.00025008127075382
28	103	0.530815080452	-0.00025079263540226
28	114	0.532511080452	-0.00033559263540226
28	122	0.532703230863	-0.00033559359615432
28	132	0.533055230863	-0.00035319359615432
28	148	0.84490596536	-0.0003547528498268
28	158	0.84660196536	-0.0004395528498268
28	172	0.847571915881	-0.00043955769957941
28	184	0.849267915881	-0.00052435769957941
28	194	0.849460089117	-0.00052435866044559
28	204	0.849812089117	-0.00054195866044559
28	213	0.851732089117	-0.00054196826044559
28	223	0.853428089117	-0.00062676826044559
28	233	0.856228089117	-0.00062678226044559
28	244	0.857924089117	-0.00071158226044559
28	256	0.861044089117	-0.00071159786044559
28	266	0.862740089117	-0.00079639786044559
28	279	1.057033077464	-0.00079736932538732
28	285	1.058729077464	-0.00088216932538732
28	302	1.058921410372	-0.00088217028705186
28	312	1.059273410372	-0.00089977028705186
28	321	1.385469708223	-0.00090140126854112
28	322	1.385661708223	-0.00090236126854112
28	328	1.387357708223	-0.0010295612685411
28	346	1.387550150763	-0.0010295622307538
28	356	1.387902150763	-0.0010471622307538
28	371	1.529535080452	-0.0010478703954023
28	382	1.531231080452	-0.0011326703954023
28	390	1.531423230863	-0.0011326713561543
28	400	1.531775230863	-0.0011502713561543
28	415	1.84618596536	-0.0011518434098268
28	429	1.84788196536	-0.0012366434098268
28	438	1.848531915881	-0.0012366466595794
28	448	1.850227915881	-0.0013214466595794
28	458	1.850420089117	-0.0013214476204456
28	468	1.850772089117	-0.0013390476204456
28	477	1.853332089117	-0.0013390604204456
28	487	1.855028089117	-0.0014238604204456
28	497	1.855908089117	-0.0014238648204456
28	507	1.857604089117	-0.0015086648204456
28	518	1.858804089117	-0.0015086708204456
28	529	1.860500089117	-0.0015934708204456
28	543	2.057353077464	-0.0015944550853873
28	549	2.059049077464	-0.0016792550853873
28	566	2.059241410372	-0.0016792560470519
28	576	2.059593410372	-0.0016968560470519
28	585	2.384509708223	-0.0016984806285411
28	586	2.384701708223	-0.0016994406285411
28	592	2.386397708223	-0.0018266406285411
28	610	2.386590150763	-0.0018266415907538
28	620	2.386942150763	-0.0018442415907538
29	10	0.057033102945	-2.85165514725e-007
29	17	0.058729102945	-8.5085165514725e-005
29	28	0.058921277163	-8.5086126385815e-005
29	34	0.059273277163	-0.00010268612638582
29	56	0.386301867143	-0.00010432126933572
29	64	0.387997867143	-0.00018912126933572
29	73	0.388190017554	-0.00018912223008777
29	79	0.388542017554	-0.00020672223008777
29	97	0.530622921532	-0.00020743263460766
29	98	0.530814921532	-0.00020839263460766
29	104	0.532510921532	-0.00033559263460766
29	118	0.532703097654	-0.00033559359548827
29	124	0.533055097654	-0.00035319359548827
29	144	0.844905832151	-0.00035475284916076
29	150	0.846601832151	-0.00043955284916076
29	171	0.847571894764	-0.00043955769947382
29	182	0.849267894764	-0.00052435769947382
29	190	0.849459955908	-0.00052435865977954
29	196	0.849811955908	-0.00054195865977954
29	209	0.851731955908	-0.00054196825977954
29	215	0.853427955908	-0.00062676825977954
29	229	0.856227955908	-0.00062678225977954
29	236	0.857923955908	-0.00071158225977954
29	252	0.861043955908	-0.00071159785977954
29	258	0.862739955908	-0.00079639785977954
29	280	1.057033102945	-0.00079736932551473
29	287	1.058729102945	-0.00088216932551473
29	298	1.058921277163	-0.00088217028638582
29	304	1.059273277163	-0.00089977028638582
29	325	1.385661867143	-0.00090140222933572
29	333	1.387357867143	-0.00098620222933572
29	342	1.387550017554	-0.00098620319008777
29	348	1.387902017554	-0.0010038031900878
29	365	1.529342921532	-0.0010045103946077
29	366	1.529534921532	-0.0010054703946077
29	372	1.531230921532	-0.0011326703946077
29	386	1.531423097654	-0.0011326713554883
29	392	1.531775097654	-0.0011502713554883
29	411	1.846185832151	-0.0011518434091608
29	421	1.847881832151	-0.0012366434091608
29	437	1.848531894764	-0.0012366466594738
29	446	1.850227894764	-0.0013214466594738
29	454	1.850419955908	-0.0013214476197795
29	460	1.850771955908	-0.0013390476197795
29	473	1.853331955908	-0.0013390604197795
29	479	1.855027955908	-0.0014238604197795
29	493	1.855907955908	-0.0014238648197795
29	499	1.857603955908	-0.0015086648197795
29	514	1.858803955908	-0.0015086708197795
29	521	1.860499955908	-0.0015934708197795
29	544	2.057353102945	-0.0015944550855147
29	551	2.059049102945	-0.0016792550855147
29	562	2.059241277163	-0.0016792560463858
29	568	2.059593277163	-0.0016968560463858
29	589	2.384701867143	-0.0016984815893357
29	597	2.386397867143	-0.0017832815893357
29	606	2.386590017554	-0.0017832825500878
29	612	2.386942017554	-0.0018008825500878
30	11	0.05703310376	-2.851655188e-007
30	19	0.05872910376	-8.50851655188e-005
30	29	0.058921311388	-8.508612655694e-005
30	36	0.059273311388	-0.00010268612655694
30	54	0.386301808389	-0.00010432126904195
30	60	0.387997808389	-0.00018912126904195
30	74	0.388190051779	-0.0001891222302589
30	81	0.388542051779	-0.0002067222302589
30	99	0.530815002664	-0.00020743359501332
30	105	0.532511002664	-0.00029223359501332
30	119	0.532703131879	-0.0002922345556594
30	126	0.533055131879	-0.0003098345556594
30	145	0.844905866376	-0.00031139380933188
30	152	0.846601866376	-0.00039619380933188
30	169	0.84757184136	-0.0003961986592068
30	177	0.84926784136	-0.0004809986592068
30	191	0.849459990133	-0.00048099961995067
30	198	0.849811990133	-0.00049859961995067
30	210	0.851731990133	-0.00049860921995067
30	217	0.853427990133	-0.00058340921995067
30	230	0.856227990133	-0.00058342321995067
30	238	0.857923990133	-0.00066822321995067
30	253	0.861043990133	-0.00066823881995067
30	260	0.862739990133	-0.00075303881995067
30	281	1.05703310376	-0.0007540102855188
30	289	1.05872910376	-0.0008388102855188
30	299	1.058921311388	-0.00083881124655694
30	306	1.059273311388	-0.00085641124655694
30	323	1.385661808389	-0.00085804318904195
30	329	1.387357808389	-0.00094284318904195
30	343	1.387550051779	-0.0009428441502589
30	350	1.387902051779	-0.0009604441502589
30	367	1.529535002664	-0.00096115231501332
30	373	1.531231002664	-0.0010459523150133
30	387	1.531423131879	-0.0010459532756594
30	394	1.531775131879	-0.0010635532756594
30	412	1.846185866376	-0.0010651253293319
30	423	1.847881866376	-0.0011499253293319
30	435	1.84853184136	-0.0011499285792068
30	441	1.85022784136	-0.0012347285792068
30	455	1.850419990133	-0.0012347295399507
30	462	1.850771990133	-0.0012523295399507
30	474	1.853331990133	-0.0012523423399507
30	481	1.855027990133	-0.0013371423399507
30	494	1.855907990133	-0.0013371467399507
30	501	1.857603990133	-0.0014219467399507
30	515	1.858803990133	-0.0014219527399507
30	523	1.860499990133	-0.0015067527399507
30	545	2.05735310376	-0.0015077370055188
30	553	2.05904910376	-0.0015925370055188
30	563	2.059241311388	-0.0015925379665569
30	570	2.059593311388	-0.0016101379665569
30	587	2.384701808389	-0.0016117635090419
30	593	2.386397808389	-0.0016965635090419
30	607	2.386590051779	-0.0016965644702589
30	614	2.386942051779	-0.0017141644702589
31	12	0.057033189102	-2.8516594551e-007
31	21	0.058729189102	-8.508516594551e-005
31	27	0.058921189102	-8.604516594551e-005
31	33	0.059273189102	-0.00011244516594551
31	58	0.386301929493	-0.00011408030964746
31	68	0.387997929493	-0.00019888030964746
[...]
30	1241	4.85118784136	-0.0034959087392068
30	1255	4.851379990133	-0.0034959096999507
30	1263	4.851731990133	-0.0035135096999507
30	1274	4.852051990133	-0.0035135112999507
30	1281	4.853747990133	-0.0035983112999507
30	1294	4.856547990133	-0.0035983252999507
30	1301	4.858243990133	-0.0036831252999507
30	1315	4.860083990133	-0.0036831344999507
30	1324	4.861779990133	-0.0037679344999507
30	1345	5.05831310376	-0.0037689171655188
30	1353	5.06000910376	-0.0038537171655188
30	1363	5.060201311388	-0.0038537181265569
30	1370	5.060553311388	-0.0038713181265569
30	1387	5.385341808389	-0.0038729420690419
30	1393	5.387037808389	-0.0039577420690419
30	1407	5.387230051779	-0.0039577430302589
30	1414	5.387582051779	-0.0039753430302589
30	1431	5.530175002664	-0.0039760559950133
30	1437	5.531871002664	-0.0040608559950133
30	1451	5.532063131879	-0.0040608569556594
31	727	2.851731867847	-0.0025133992993392
31	740	2.860819867847	-0.0025134447393392
31	741	2.861011867847	-0.0025144047393392
31	749	2.862707867847	-0.0026416047393392
31	762	2.864035867847	-0.0026416113793392
31	763	2.864227867847	-0.0026425713793392
31	769	2.865923867847	-0.0027697713793392
31	782	2.866611867847	-0.0027697748193392
31	783	2.866803867847	-0.0027707348193392
31	789	2.868499867847	-0.0028979348193392
31	814	3.058313189102	-0.0028988838859455
31	823	3.060009189102	-0.0029836838859455
31	829	3.060201189102	-0.0029846438859455
31	835	3.060553189102	-0.0030110438859455
31	859	3.386301929493	-0.0030126726296475
31	869	3.387997929493	-0.0030974726296475
31	873	3.388189929493	-0.0030984326296475
31	879	3.388541929493	-0.0031248326296475
31	900	3.529215009593	-0.003125535995048
31	907	3.530911009593	-0.003210335995048
31	917	3.531103009593	-0.003211295995048
31	923	3.531455009593	-0.003237695995048
31	941	3.84471374409	-0.0032392622887205
31	942	3.84490574409	-0.0032402222887205
31	948	3.84660174409	-0.0033674222887205
31	968	3.847891867847	-0.0033674287393392
31	977	3.849587867847	-0.0034522287393392
31	987	3.849779867847	-0.0034531887393392
31	993	3.850131867847	-0.0034795887393392
31	1005	3.853459867847	-0.0034796053793392
31	1006	3.853651867847	-0.0034805653793392
31	1012	3.855347867847	-0.0036077653793392
31	1026	3.858275867847	-0.0036077800193392
31	1027	3.858467867847	-0.0036087400193392
31	1035	3.860163867847	-0.0037359400193392
31	1048	3.860851867847	-0.0037359434593392
31	1049	3.861043867847	-0.0037369034593392
31	1055	3.862739867847	-0.0038641034593392
31	1080	4.057353189102	-0.0038650765259455
31	1089	4.059049189102	-0.0039498765259455
31	1095	4.059241189102	-0.0039508365259455
31	1101	4.059593189102	-0.0039772365259455
31	1125	4.385021929493	-0.0039788636696475
31	1135	4.386717929493	-0.0040636636696475
31	1139	4.386909929493	-0.0040646236696475
31	1145	4.387261929493	-0.0040910236696475
31	1166	4.530175009593	-0.004091738235048
31	1173	4.531871009593	-0.004176538235048
31	1183	4.532063009593	-0.004177498235048
31	1189	4.532415009593	-0.004203898235048
31	1207	4.84663374409	-0.0042054693287205
31	1208	4.84682574409	-0.0042064293287205
31	1218	4.84852174409	-0.0043336293287205
31	1234	4.849491867847	-0.0043336341793392
31	1243	4.851187867847	-0.0044184341793392
31	1253	4.851379867847	-0.0044193941793392
31	1259	4.851731867847	-0.0044457941793392
31	1271	4.851859867847	-0.0044457948193392
31	1272	4.852051867847	-0.0044467548193392
31	1278	4.853747867847	-0.0045739548193392
31	1291	4.856355867847	-0.0045739678593392
31	1292	4.856547867847	-0.0045749278593392
31	1298	4.858243867847	-0.0047021278593392
31	1312	4.859891867847	-0.0047021360993392
31	1313	4.860083867847	-0.0047030960993392
31	1321	4.861779867847	-0.0048302960993392
31	1346	5.058313189102	-0.0048312787659455
31	1355	5.060009189102	-0.0049160787659455
31	1361	5.060201189102	-0.0049170387659455
31	1367	5.060553189102	-0.0049434387659455
31	1391	5.385341929493	-0.0049450627096475
31	1401	5.387037929493	-0.0050298627096475
31	1405	5.387229929493	-0.0050308227096475
31	1411	5.387581929493	-0.0050572227096475
31	1432	5.530175009593	-0.005057935675048
31	1439	5.531871009593	-0.005142735675048
31	1449	5.532063009593	-0.005143695675048
31	1455	5.532415009593	-0.005170095675048
32	732	2.851731998437	-0.0021361365799922
32	744	2.861011998437	-0.0021361829799922
32	754	2.862707998437	-0.0022209829799922
32	766	2.864227998437	-0.0022209905799922
32	774	2.865923998437	-0.0023057905799922
32	786	2.866803998437	-0.0023057949799922
32	794	2.868499998437	-0.0023905949799922
32	815	3.058313207452	-0.0023915440460373
32	826	3.060009207452	-0.0024763440460373
32	832	3.060201319692	-0.0024763450065985
32	840	3.060553319692	-0.0024939450065985
32	858	3.386301886847	-0.0024955737494342
32	867	3.387997886847	-0.0025803737494342
32	876	3.388190060083	-0.0025803747103004
32	884	3.388542060083	-0.0025979747103004
32	902	3.529215079039	-0.0025986780753952
32	912	3.530911079039	-0.0026834780753952
32	920	3.531103140183	-0.0026834790357009
32	928	3.531455140183	-0.0027010790357009
32	945	3.84490587468	-0.0027026462893734
32	953	3.84660187468	-0.0027874462893734
32	965	3.847699737257	-0.0027874517786863
32	966	3.847891737257	-0.0027884117786863
32	974	3.849587737257	-0.0029156117786863
32	990	3.849779998437	-0.0029156127399922
32	998	3.850131998437	-0.0029332127399922
32	1009	3.853651998437	-0.0029332303399922
32	1017	3.855347998437	-0.0030180303399922
32	1030	3.858467998437	-0.0030180459399922
32	1040	3.860163998437	-0.0031028459399922
32	1052	3.861043998437	-0.0031028503399922
32	1060	3.862739998437	-0.0031876503399922
32	1081	4.057353207452	-0.0031886234060373
32	1092	4.059049207452	-0.0032734234060373
32	1098	4.059241319692	-0.0032734243665985
32	1106	4.059593319692	-0.0032910243665985
32	1124	4.385021886847	-0.0032926515094342
32	1133	4.386717886847	-0.0033774515094342
32	1142	4.386910060083	-0.0033774524703004
32	1150	4.387262060083	-0.0033950524703004
32	1168	4.530175079039	-0.0033957670353952
32	1178	4.531871079039	-0.0034805670353952
32	1186	4.532063140183	-0.0034805679957009
32	1194	4.532415140183	-0.0034981679957009
32	1211	4.84682587468	-0.0034997400493734
32	1223	4.84852187468	-0.0035845400493734
32	1231	4.849299737257	-0.0035845439386863
32	1232	4.849491737257	-0.0035855039386863
32	1240	4.851187737257	-0.0037127039386863
32	1256	4.851379998437	-0.0037127048999922
32	1265	4.851731998437	-0.0037303048999922
32	1275	4.852051998437	-0.0037303064999922
32	1283	4.853747998437	-0.0038151064999922
32	1295	4.856547998437	-0.0038151204999922
32	1303	4.858243998437	-0.0038999204999922
32	1316	4.860083998437	-0.0038999296999922
32	1326	4.861779998437	-0.0039847296999922
32	1347	5.058313207452	-0.0039857123660373
32	1358	5.060009207452	-0.0040705123660373
32	1364	5.060201319692	-0.0040705133265985
32	1372	5.060553319692	-0.0040881133265985
32	1390	5.385341886847	-0.0040897372694342
32	1399	5.387037886847	-0.0041745372694342
32	1408	5.387230060083	-0.0041745382303004
32	1416	5.387582060083	-0.0041921382303004
32	1434	5.530175079039	-0.0041928511953952
32	1444	5.531871079039	-0.0042776511953952
32	1452	5.532063140183	-0.0042776521557009
33	737	2.851732089117	5
33	759	2.862708089117	47
33	779	2.865924089117	47
33	799	2.868500089117	47
33	818	3.060009077464	47
33	845	3.060553410372	5
33	915	3.530911080452	47
33	933	3.531455230863	5
33	958	3.84660196536	47
33	983	3.849587915881	47
33	1003	3.850132089117	5
33	1022	3.855348089117	47
33	1045	3.860164089117	47
33	1065	3.862740089117	47
33	1084	4.059049077464	47
33	1111	4.059593410372	5
33	1181	4.531871080452	47
33	1199	4.532415230863	5
33	1228	4.84852196536	47
33	1249	4.851187915881	47
33	1270	4.851732089117	5
33	1288	4.853748089117	47
33	1308	4.858244089117	47
33	1331	4.861780089117	47
33	1350	5.060009077464	47
33	1377	5.060553410372	5
33	1447	5.531871080452	47
34	729	2.851731955908	5
34	751	2.862707955908	47
34	771	2.865923955908	47
34	791	2.868499955908	47
34	820	3.060009102945	47
34	837	3.060553277163	5
34	866	3.387997867143	47
34	881	3.388542017554	5
34	950	3.846601832151	47
34	981	3.849587894764	47
34	995	3.850131955908	5
34	1014	3.855347955908	47
34	1037	3.860163955908	47
34	1057	3.862739955908	47
34	1086	4.059049102945	47
34	1103	4.059593277163	5
34	1132	4.386717867143	47
34	1147	4.387262017554	5
34	1220	4.848521832151	47
34	1247	4.851187894764	47
34	1262	4.851731955908	5
34	1280	4.853747955908	47
34	1300	4.858243955908	47
34	1323	4.861779955908	47
34	1352	5.060009102945	47
34	1369	5.060553277163	5
34	1398	5.387037867143	47
34	1413	5.387582017554	5
35	731	2.851731990133	5
35	753	2.862707990133	47
35	773	2.865923990133	47
35	793	2.868499990133	47
35	822	3.06000910376	47
35	839	3.060553311388	5
35	862	3.387997808389	47
35	883	3.388542051779	5
35	906	3.530911002664	47
35	927	3.531455131879	5
35	952	3.846601866376	47
35	976	3.84958784136	47
35	997	3.850131990133	5
35	1016	3.855347990133	47
35	1039	3.860163990133	47
35	1059	3.862739990133	47
35	1088	4.05904910376	47
35	1105	4.059593311388	5
35	1128	4.386717808389	47
35	1149	4.387262051779	5
35	1172	4.531871002664	47
35	1193	4.532415131879	5
35	1222	4.848521866376	47
35	1242	4.85118784136	47
35	1264	4.851731990133	5
35	1282	4.853747990133	47
35	1302	4.858243990133	47
35	1325	4.861779990133	47
35	1354	5.06000910376	47
35	1371	5.060553311388	5
35	1394	5.387037808389	47
35	1415	5.387582051779	5
35	1438	5.531871002664	47
36	727	2.851731867847	1
36	727	2.851731867847	0
36	740	2.860819867847	1
36	741	2.861011867847	2
36	749	2.862707867847	1
36	749	2.862707867847	0
36	762	2.864035867847	1
36	763	2.864227867847	2
36	769	2.865923867847	1
36	769	2.865923867847	0
36	782	2.866611867847	1
36	783	2.866803867847	2
36	789	2.868499867847	1
36	789	2.868499867847	0
36	824	3.060009189102	1
36	829	3.060201189102	2
36	835	3.060553189102	1
36	835	3.060553189102	0
36	870	3.387997929493	1
36	873	3.388189929493	2
36	879	3.388541929493	1
36	879	3.388541929493	0
36	908	3.530911009593	1
36	917	3.531103009593	2
36	923	3.531455009593	1
36	923	3.531455009593	0
36	941	3.84471374409	1
36	942	3.84490574409	2
36	948	3.84660174409	1
36	948	3.84660174409	0
36	978	3.849587867847	1
36	987	3.849779867847	2
36	993	3.850131867847	1
36	993	3.850131867847	0
36	1005	3.853459867847	1
36	1006	3.853651867847	2
36	1012	3.855347867847	1
36	1012	3.855347867847	0
36	1026	3.858275867847	1
36	1027	3.858467867847	2
36	1035	3.860163867847	1
36	1035	3.860163867847	0
36	1048	3.860851867847	1
36	1049	3.861043867847	2
36	1055	3.862739867847	1
36	1055	3.862739867847	0
36	1090	4.059049189102	1
36	1095	4.059241189102	2
36	1101	4.059593189102	1
36	1101	4.059593189102	0
36	1136	4.386717929493	1
36	1139	4.386909929493	2
36	1145	4.387261929493	1
36	1145	4.387261929493	0
36	1174	4.531871009593	1
36	1183	4.532063009593	2
36	1189	4.532415009593	1
36	1189	4.532415009593	0
36	1207	4.84663374409	1
36	1208	4.84682574409	2
36	1218	4.84852174409	1
36	1218	4.84852174409	0
36	1244	4.851187867847	1
36	1253	4.851379867847	2
36	1259	4.851731867847	1
36	1259	4.851731867847	0
36	1271	4.851859867847	1
36	1272	4.852051867847	2
36	1278	4.853747867847	1
36	1278	4.853747867847	0
36	1291	4.856355867847	1
36	1292	4.856547867847	2
36	1298	4.858243867847	1
36	1298	4.858243867847	0
36	1312	4.859891867847	1
36	1313	4.860083867847	2
36	1321	4.861779867847	1
36	1321	4.861779867847	0
36	1356	5.060009189102	1
36	1361	5.060201189102	2
36	1367	5.060553189102	1
36	1367	5.060553189102	0
36	1402	5.387037929493	1
36	1405	5.387229929493	2
36	1411	5.387581929493	1
36	1411	5.387581929493	0
36	1440	5.531871009593	1
36	1449	5.532063009593	2
36	1455	5.532415009593	1
36	1455	5.532415009593	0
37	825	3.060009189102	38
37	871	3.387997929493	38
37	909	3.530911009593	38
37	979	3.849587867847	38
37	1091	4.059049189102	38
37	1137	4.386717929493	38
37	1175	4.531871009593	38
37	1245	4.851187867847	38
37	1357	5.060009189102	38
37	1403	5.387037929493	38
37	1441	5.531871009593	38
38	755	2.862707998437	47
38	775	2.865923998437	47
38	795	2.868499998437	47
38	827	3.060009207452	47
38	841	3.060553319692	5
38	868	3.387997886847	47
38	885	3.388542060083	5
38	913	3.530911079039	47
38	929	3.531455140183	5
38	954	3.84660187468	47
38	1018	3.855347998437	47
38	1041	3.860163998437	47
38	1061	3.862739998437	47
38	1093	4.059049207452	47
38	1107	4.059593319692	5
38	1134	4.386717886847	47
38	1151	4.387262060083	5
38	1179	4.531871079039	47
38	1195	4.532415140183	5
38	1224	4.84852187468	47
38	1284	4.853747998437	47
38	1304	4.858243998437	47
38	1327	4.861779998437	47
38	1359	5.060009207452	47
38	1373	5.060553319692	5
38	1400	5.387037886847	47
38	1417	5.387582060083	5
38	1445	5.531871079039	47
39	848	3.384381708223	10
39	1114	4.384381708223	10
39	1380	5.384381708223	10
40	849	3.384381708223	18
40	1115	4.384381708223	18
40	1381	5.384381708223	18
41	853	3.386109708223	1
41	854	3.386301708223	2
41	860	3.387997708223	1
41	860	3.387997708223	0
41	1119	4.384829708223	1
41	1120	4.385021708223	2
41	1126	4.386717708223	1
41	1126	4.386717708223	0
41	1385	5.385149708223	1
41	1386	5.385341708223	2
41	1392	5.387037708223	1
41	1392	5.387037708223	0
42	735	2.851732081223	5
42	757	2.862708081223	47
42	777	2.865924081223	47
42	797	2.868500081223	47
42	864	3.387997809961	47
42	887	3.388542142869	5
42	911	3.530911048751	47
42	931	3.531455222969	5
42	956	3.846601957466	47
42	985	3.849587968983	47
42	1001	3.850132081223	5
42	1020	3.855348081223	47
42	1043	3.860164081223	47
42	1063	3.862740081223	47
42	1130	4.386717809961	47
42	1153	4.387262142869	5
42	1177	4.531871048751	47
42	1197	4.532415222969	5
42	1226	4.848521957466	47
42	1251	4.851187968983	47
42	1268	4.851732081223	5
42	1286	4.853748081223	47
42	1306	4.858244081223	47
42	1329	4.861780081223	47
42	1396	5.387037809961	47
42	1419	5.387582142869	5
42	1443	5.531871048751	47
43	892	3.528894921532	10
43	1158	4.528894921532	10
43	1424	5.528894921532	10
44	893	3.528894921532	18
44	1159	4.528894921532	18
44	1425	5.528894921532	18
45	897	3.529022921532	1
45	898	3.529214921532	2
45	904	3.530910921532	1
45	904	3.530910921532	0
45	1163	4.529982921532	1
45	1164	4.530174921532	2
45	1170	4.531870921532	1
45	1170	4.531870921532	0
45	1429	5.529982921532	1
45	1430	5.530174921532	2
45	1436	5.531870921532	1
45	1436	5.531870921532	0
46	936	3.84426574409	10
46	1202	4.84426574409	10
47	937	3.84426574409	18
47	1203	4.84426574409	18
48	960	3.847251737257	10
48	1214	4.847251737257	10
49	961	3.847251737257	18
49	1215	4.847251737257	18
50	965	3.847699737257	1
50	966	3.847891737257	2
50	974	3.849587737257	1
50	974	3.849587737257	0
50	1231	4.849299737257	1
50	1232	4.849491737257	2
50	1240	4.851187737257	1
50	1240	4.851187737257	0
51	800	2.869059867847	47
51	1066	3.863299867847	47
51	1332	4.862339867847	47
vector 52 Ieee802154Showcasem.sensor1.app[0] throughput:vector ETV
attr source throughput(packetReceived)
attr title "throughput, vector"
attr unit bps
vector 53 Ieee802154Showcasem.sensor2.app[0] throughput:vector ETV
attr source throughput(packetReceived)
attr title "throughput, vector"
attr unit bps
vector 54 Ieee802154Showcasem.sensor3.app[0] throughput:vector ETV
attr source throughput(packetReceived)
attr title "throughput, vector"
attr unit bps
vector 55 Ieee802154Showcasem.sensor4.app[0] throughput:vector ETV
attr source throughput(packetReceived)
attr title "throughput, vector"
attr unit bps
vector 56 Ieee802154Showcasem.sensorNode.app[0] throughput:vector ETV
attr source throughput(packetReceived)
attr title "throughput, vector"
attr unit bps
52	1455	0.1	0
52	1455	0.2	0
52	1455	0.3	0
52	1455	0.4	0
52	1455	0.5	0
52	1455	0.6	0
52	1455	0.7	0
52	1455	0.8	0
52	1455	0.9	0
52	1455	1	0
52	1455	1.1	0
52	1455	1.2	0
52	1455	1.3	0
52	1455	1.4	0
52	1455	1.5	0
52	1455	1.6	0
52	1455	1.7	0
52	1455	1.8	0
52	1455	1.9	0
52	1455	2	0
52	1455	2.1	0
52	1455	2.2	0
52	1455	2.3	0
52	1455	2.4	0
52	1455	2.5	0
52	1455	2.6	0
52	1455	2.7	0
52	1455	2.8	0
52	1455	2.9	0
52	1455	3	0
52	1455	3.1	0
52	1455	3.2	0
52	1455	3.3	0
52	1455	3.4	0
52	1455	3.5	0
52	1455	3.6	0
52	1455	3.7	0
52	1455	3.8	0
52	1455	3.9	0
52	1455	4	0
52	1455	4.1	0
52	1455	4.2	0
52	1455	4.3	0
52	1455	4.4	0
52	1455	4.5	0
52	1455	4.6	0
52	1455	4.7	0
52	1455	4.8	0
52	1455	4.9	0
52	1455	5	0
52	1455	5.1	0
52	1455	5.2	0
52	1455	5.3	0
52	1455	5.4	0
52	1455	5.5	0
52	1455	5.532415065699	0
53	1455	0.1	0
53	1455	0.2	0
53	1455	0.3	0
53	1455	0.4	0
53	1455	0.5	0
53	1455	0.6	0
53	1455	0.7	0
53	1455	0.8	0
53	1455	0.9	0
53	1455	1	0
53	1455	1.1	0
53	1455	1.2	0
53	1455	1.3	0
53	1455	1.4	0
53	1455	1.5	0
53	1455	1.6	0
53	1455	1.7	0
53	1455	1.8	0
53	1455	1.9	0
53	1455	2	0
53	1455	2.1	0
53	1455	2.2	0
53	1455	2.3	0
53	1455	2.4	0
53	1455	2.5	0
53	1455	2.6	0
53	1455	2.7	0
53	1455	2.8	0
53	1455	2.9	0
53	1455	3	0
53	1455	3.1	0
53	1455	3.2	0
53	1455	3.3	0
53	1455	3.4	0
53	1455	3.5	0
53	1455	3.6	0
53	1455	3.7	0
53	1455	3.8	0
53	1455	3.9	0
53	1455	4	0
53	1455	4.1	0
53	1455	4.2	0
53	1455	4.3	0
53	1455	4.4	0
53	1455	4.5	0
53	1455	4.6	0
53	1455	4.7	0
53	1455	4.8	0
53	1455	4.9	0
53	1455	5	0
53	1455	5.1	0
53	1455	5.2	0
53	1455	5.3	0
53	1455	5.4	0
53	1455	5.5	0
53	1455	5.532415065699	0
54	1455	0.1	0
54	1455	0.2	0
54	1455	0.3	0
54	1455	0.4	0
54	1455	0.5	0
54	1455	0.6	0
54	1455	0.7	0
54	1455	0.8	0
54	1455	0.9	0
54	1455	1	0
54	1455	1.1	0
54	1455	1.2	0
54	1455	1.3	0
54	1455	1.4	0
54	1455	1.5	0
54	1455	1.6	0
54	1455	1.7	0
54	1455	1.8	0
54	1455	1.9	0
54	1455	2	0
54	1455	2.1	0
54	1455	2.2	0
54	1455	2.3	0
54	1455	2.4	0
54	1455	2.5	0
54	1455	2.6	0
54	1455	2.7	0
54	1455	2.8	0
54	1455	2.9	0
54	1455	3	0
54	1455	3.1	0
54	1455	3.2	0
54	1455	3.3	0
54	1455	3.4	0
54	1455	3.5	0
54	1455	3.6	0
54	1455	3.7	0
54	1455	3.8	0
54	1455	3.9	0
54	1455	4	0
54	1455	4.1	0
54	1455	4.2	0
54	1455	4.3	0
54	1455	4.4	0
54	1455	4.5	0
54	1455	4.6	0
54	1455	4.7	0
54	1455	4.8	0
54	1455	4.9	0
54	1455	5	0
54	1455	5.1	0
54	1455	5.2	0
54	1455	5.3	0
54	1455	5.4	0
54	1455	5.5	0
54	1455	5.532415065699	0
55	1455	0.1	0
55	1455	0.2	0
55	1455	0.3	0
55	1455	0.4	0
55	1455	0.5	0
55	1455	0.6	0
55	1455	0.7	0
55	1455	0.8	0
55	1455	0.9	0
55	1455	1	0
55	1455	1.1	0
55	1455	1.2	0
55	1455	1.3	0
55	1455	1.4	0
55	1455	1.5	0
55	1455	1.6	0
55	1455	1.7	0
55	1455	1.8	0
55	1455	1.9	0
55	1455	2	0
55	1455	2.1	0
55	1455	2.2	0
55	1455	2.3	0
55	1455	2.4	0
55	1455	2.5	0
55	1455	2.6	0
55	1455	2.7	0
55	1455	2.8	0
55	1455	2.9	0
55	1455	3	0
55	1455	3.1	0
55	1455	3.2	0
55	1455	3.3	0
55	1455	3.4	0
55	1455	3.5	0
55	1455	3.6	0
55	1455	3.7	0
55	1455	3.8	0
55	1455	3.9	0
55	1455	4	0
55	1455	4.1	0
55	1455	4.2	0
55	1455	4.3	0
55	1455	4.4	0
55	1455	4.5	0
55	1455	4.6	0
55	1455	4.7	0
55	1455	4.8	0
55	1455	4.9	0
55	1455	5	0
55	1455	5.1	0
55	1455	5.2	0
55	1455	5.3	0
55	1455	5.4	0
55	1455	5.5	0
55	1455	5.532415065699	0
56	1455	0.1	0
56	1455	0.2	0
56	1455	0.3	0
56	1455	0.4	0
56	1455	0.5	0
56	1455	0.6	0
56	1455	0.7	0
56	1455	0.8	0
56	1455	0.9	0
56	1455	1	0
56	1455	1.1	0
56	1455	1.2	0
56	1455	1.3	0
56	1455	1.4	0
56	1455	1.5	0
56	1455	1.6	0
56	1455	1.7	0
56	1455	1.8	0
56	1455	1.9	0
56	1455	2	0
56	1455	2.1	0
56	1455	2.2	0
56	1455	2.3	0
56	1455	2.4	0
56	1455	2.5	0
56	1455	2.6	0
56	1455	2.7	0
56	1455	2.8	0
56	1455	2.9	0
56	1455	3	0
56	1455	3.1	0
56	1455	3.2	0
56	1455	3.3	0
56	1455	3.4	0
56	1455	3.5	0
56	1455	3.6	0
56	1455	3.7	0
56	1455	3.8	0
56	1455	3.9	0
56	1455	4	0
56	1455	4.1	0
56	1455	4.2	0
56	1455	4.3	0
56	1455	4.4	0
56	1455	4.5	0
56	1455	4.6	0
56	1455	4.7	0
56	1455	4.8	0
56	1455	4.9	0
56	1455	5	0
56	1455	5.1	0
56	1455	5.2	0
56	1455	5.3	0
56	1455	5.4	0
56	1455	5.5	0
56	1455	5.532415065699	0

