version 2
run LMac-0-20190610-15:42:01-14380
attr configname LMac
attr datetime 20190610-15:42:01
attr experiment LMac
attr inifile SensorNetworkSimpleCluster2.ini
attr iterationvars ""
attr iterationvarsf ""
attr measurement ""
attr network SensorNetworkShowcaseA3
attr processid 14380
attr repetition 0
attr replication #0
attr resultdir results
attr runnumber 0
attr seedset 0
param **.wlan[*].mac.typename "\"LMac\""
param **.mac.slotDuration 50ms
param **.mac.numSlots 8
param **.mac.reservedMobileSlots 0
param **.wlan[*].typename "\"WirelessInterface\""
param **.wlan[*].radio.typename "\"ApskScalarRadio\""
param **.arp.typename "\"GlobalArp\""
param *.CH.forwarding true
param *.configurator.addStaticRoutes false
param *.configurator.config "xmldoc(\"config3.xml\")"
param **.radio.carrierFrequency 2.45GHz
param **.radio.bandwidth 2.8MHz
param **.radio.transmitter.bitrate "19200 bps"
param **.radio.transmitter.headerLength 8b
param **.radio.transmitter.preambleDuration 0.0001s
param **.radio.transmitter.power 2.24mW
param **.radio.receiver.energyDetection -90dBm
param **.radio.receiver.sensitivity -100dBm
param **.radio.receiver.snirThreshold -8dB
param *.radioMedium.backgroundNoise.power -110dBm
param **.mac.headerLength 8b
param *.sensor*.numApps 1
param *.sensor*.app[0].typename "\"UdpBasicApp\""
param *.sensor*.app[0].destAddresses "\"controller\""
param *.sensor*.app[0].destPort 1000
param *.sensor*.app[0].sendInterval 1s
param *.sensor*.app[0].startTime exponential(1s)
param *.sensor*.app[0].messageLength 10Byte
param *.sensor*.app[*].packetName "\"SensorData\""
param *.controller.numApps 1
param *.controller.app[0].typename "\"UdpSink\""
param *.controller.app[0].localPort 1000
param *.visualizer.*.routingTableVisualizer.displayRoutingTables false
param *.visualizer.*.routingTableVisualizer.displayRoutesIndividually false
param *.visualizer.*.routingTableVisualizer.lineShift 0
param *.visualizer.*.routingTableVisualizer.displayLabels false
param *.visualizer.*.infoVisualizer.modules "\"*.controller.app[0]\""
param *.visualizer.*.infoVisualizer.format "\"%t\""
param *.visualizer.*.networkRouteVisualizer.displayRoutes true
param *.visualizer.*.physicalLinkVisualizer.displayLinks true

vector 0 SensorNetworkShowcaseA3.sensor4.energyStorage powerConsumption:vector ETV
attr interpolationmode sample-hold
attr source powerConsumptionChanged
attr title "Power consumption, vector"
vector 1 SensorNetworkShowcaseA3.sensor1.energyStorage powerConsumption:vector ETV
attr interpolationmode sample-hold
attr source powerConsumptionChanged
attr title "Power consumption, vector"
vector 2 SensorNetworkShowcaseA3.sensor2.energyStorage powerConsumption:vector ETV
attr interpolationmode sample-hold
attr source powerConsumptionChanged
attr title "Power consumption, vector"
vector 3 SensorNetworkShowcaseA3.sensor3.energyStorage powerConsumption:vector ETV
attr interpolationmode sample-hold
attr source powerConsumptionChanged
attr title "Power consumption, vector"
vector 4 SensorNetworkShowcaseA3.sensor5.energyStorage powerConsumption:vector ETV
attr interpolationmode sample-hold
attr source powerConsumptionChanged
attr title "Power consumption, vector"
vector 5 SensorNetworkShowcaseA3.CH.energyStorage powerConsumption:vector ETV
attr interpolationmode sample-hold
attr source powerConsumptionChanged
attr title "Power consumption, vector"
vector 6 SensorNetworkShowcaseA3.sensor4.wlan[0].radio radioMode:vector ETV
attr interpolationmode sample-hold
attr source radioModeChanged
attr title "Radio mode, vector"
vector 7 SensorNetworkShowcaseA3.sensor4.wlan[0].radio.energyConsumer powerConsumption:vector ETV
attr interpolationmode sample-hold
attr source powerConsumptionChanged
attr title "Power consumption, vector"
vector 8 SensorNetworkShowcaseA3.sensor1.wlan[0].radio radioMode:vector ETV
attr interpolationmode sample-hold
attr source radioModeChanged
attr title "Radio mode, vector"
vector 9 SensorNetworkShowcaseA3.sensor1.wlan[0].radio.energyConsumer powerConsumption:vector ETV
attr interpolationmode sample-hold
attr source powerConsumptionChanged
attr title "Power consumption, vector"
vector 10 SensorNetworkShowcaseA3.sensor2.wlan[0].radio radioMode:vector ETV
attr interpolationmode sample-hold
attr source radioModeChanged
attr title "Radio mode, vector"
vector 11 SensorNetworkShowcaseA3.sensor2.wlan[0].radio.energyConsumer powerConsumption:vector ETV
attr interpolationmode sample-hold
attr source powerConsumptionChanged
attr title "Power consumption, vector"
vector 12 SensorNetworkShowcaseA3.sensor3.wlan[0].radio radioMode:vector ETV
attr interpolationmode sample-hold
attr source radioModeChanged
attr title "Radio mode, vector"
vector 13 SensorNetworkShowcaseA3.sensor3.wlan[0].radio.energyConsumer powerConsumption:vector ETV
attr interpolationmode sample-hold
attr source powerConsumptionChanged
attr title "Power consumption, vector"
vector 14 SensorNetworkShowcaseA3.sensor5.wlan[0].radio radioMode:vector ETV
attr interpolationmode sample-hold
attr source radioModeChanged
attr title "Radio mode, vector"
vector 15 SensorNetworkShowcaseA3.sensor5.wlan[0].radio.energyConsumer powerConsumption:vector ETV
attr interpolationmode sample-hold
attr source powerConsumptionChanged
attr title "Power consumption, vector"
vector 16 SensorNetworkShowcaseA3.CH.wlan[0].radio radioMode:vector ETV
attr interpolationmode sample-hold
attr source radioModeChanged
attr title "Radio mode, vector"
vector 17 SensorNetworkShowcaseA3.CH.wlan[0].radio.energyConsumer powerConsumption:vector ETV
attr interpolationmode sample-hold
attr source powerConsumptionChanged
attr title "Power consumption, vector"
vector 18 SensorNetworkShowcaseA3.sensor4.energyStorage residualEnergyCapacity:vector ETV
attr interpolationmode linear
attr source residualEnergyCapacityChanged
attr title "Residual energy capacity, vector"
vector 19 SensorNetworkShowcaseA3.sensor4.wlan[0].radio receptionState:vector ETV
attr interpolationmode sample-hold
attr source receptionStateChanged
attr title "Radio reception state, vector"
vector 20 SensorNetworkShowcaseA3.sensor1.energyStorage residualEnergyCapacity:vector ETV
attr interpolationmode linear
attr source residualEnergyCapacityChanged
attr title "Residual energy capacity, vector"
vector 21 SensorNetworkShowcaseA3.sensor1.wlan[0].radio receptionState:vector ETV
attr interpolationmode sample-hold
attr source receptionStateChanged
attr title "Radio reception state, vector"
vector 22 SensorNetworkShowcaseA3.sensor2.energyStorage residualEnergyCapacity:vector ETV
attr interpolationmode linear
attr source residualEnergyCapacityChanged
attr title "Residual energy capacity, vector"
vector 23 SensorNetworkShowcaseA3.sensor2.wlan[0].radio receptionState:vector ETV
attr interpolationmode sample-hold
attr source receptionStateChanged
attr title "Radio reception state, vector"
vector 24 SensorNetworkShowcaseA3.sensor3.energyStorage residualEnergyCapacity:vector ETV
attr interpolationmode linear
attr source residualEnergyCapacityChanged
attr title "Residual energy capacity, vector"
vector 25 SensorNetworkShowcaseA3.sensor3.wlan[0].radio receptionState:vector ETV
attr interpolationmode sample-hold
attr source receptionStateChanged
attr title "Radio reception state, vector"
vector 26 SensorNetworkShowcaseA3.sensor5.energyStorage residualEnergyCapacity:vector ETV
attr interpolationmode linear
attr source residualEnergyCapacityChanged
attr title "Residual energy capacity, vector"
vector 27 SensorNetworkShowcaseA3.sensor5.wlan[0].radio receptionState:vector ETV
attr interpolationmode sample-hold
attr source receptionStateChanged
attr title "Radio reception state, vector"
vector 28 SensorNetworkShowcaseA3.CH.energyStorage residualEnergyCapacity:vector ETV
attr interpolationmode linear
attr source residualEnergyCapacityChanged
attr title "Residual energy capacity, vector"
vector 29 SensorNetworkShowcaseA3.CH.wlan[0].radio receptionState:vector ETV
attr interpolationmode sample-hold
attr source receptionStateChanged
attr title "Radio reception state, vector"
vector 30 SensorNetworkShowcaseA3.sensor5.wlan[0].radio transmissionState:vector ETV
attr interpolationmode sample-hold
attr source transmissionStateChanged
attr title "Radio transmission state, vector"
vector 31 SensorNetworkShowcaseA3.CH.wlan[0].radio transmissionState:vector ETV
attr interpolationmode sample-hold
attr source transmissionStateChanged
attr title "Radio transmission state, vector"
vector 32 SensorNetworkShowcaseA3.sensor3.app[0] packetSent:vector(packetBytes) ETV
attr interpolationmode none
attr source packetSent
attr title "packets sent, vector(packetBytes)"
vector 33 SensorNetworkShowcaseA3.sensor3.udp packetSent:vector(packetBytes) ETV
attr interpolationmode none
attr source packetSent
attr title "packets sent, vector(packetBytes)"
vector 34 SensorNetworkShowcaseA3.sensor4.wlan[0].radio transmissionState:vector ETV
attr interpolationmode sample-hold
attr source transmissionStateChanged
attr title "Radio transmission state, vector"
vector 35 SensorNetworkShowcaseA3.sensor1.wlan[0].radio transmissionState:vector ETV
attr interpolationmode sample-hold
attr source transmissionStateChanged
attr title "Radio transmission state, vector"
vector 36 SensorNetworkShowcaseA3.sensor2.wlan[0].radio transmissionState:vector ETV
attr interpolationmode sample-hold
attr source transmissionStateChanged
attr title "Radio transmission state, vector"
vector 37 SensorNetworkShowcaseA3.sensor3.wlan[0].radio transmissionState:vector ETV
attr interpolationmode sample-hold
attr source transmissionStateChanged
attr title "Radio transmission state, vector"
vector 38 SensorNetworkShowcaseA3.sensor2.app[0] packetSent:vector(packetBytes) ETV
attr interpolationmode none
attr source packetSent
attr title "packets sent, vector(packetBytes)"
vector 39 SensorNetworkShowcaseA3.sensor2.udp packetSent:vector(packetBytes) ETV
attr interpolationmode none
attr source packetSent
attr title "packets sent, vector(packetBytes)"
vector 40 SensorNetworkShowcaseA3.sensor5.app[0] packetSent:vector(packetBytes) ETV
attr interpolationmode none
attr source packetSent
attr title "packets sent, vector(packetBytes)"
vector 41 SensorNetworkShowcaseA3.sensor5.udp packetSent:vector(packetBytes) ETV
attr interpolationmode none
attr source packetSent
attr title "packets sent, vector(packetBytes)"
vector 42 SensorNetworkShowcaseA3.sensor4.app[0] packetSent:vector(packetBytes) ETV
attr interpolationmode none
attr source packetSent
attr title "packets sent, vector(packetBytes)"
vector 43 SensorNetworkShowcaseA3.sensor4.udp packetSent:vector(packetBytes) ETV
attr interpolationmode none
attr source packetSent
attr title "packets sent, vector(packetBytes)"
vector 44 SensorNetworkShowcaseA3.sensor1.app[0] packetSent:vector(packetBytes) ETV
attr interpolationmode none
attr source packetSent
attr title "packets sent, vector(packetBytes)"
vector 45 SensorNetworkShowcaseA3.sensor1.udp packetSent:vector(packetBytes) ETV
attr interpolationmode none
attr source packetSent
attr title "packets sent, vector(packetBytes)"
vector 46 SensorNetworkShowcaseA3.CH.eth[0].encap encapPk:vector(packetBytes) ETV
attr interpolationmode none
attr source encapPk
attr title "packets encapsulated, vector(packetBytes)"
vector 47 SensorNetworkShowcaseA3.CH.eth[0].mac packetReceivedFromUpper:vector(packetBytes) ETV
attr interpolationmode none
attr source packetReceivedFromUpper
attr title "packet bytes from higher layer, vector(packetBytes)"
vector 48 SensorNetworkShowcaseA3.CH.eth[0].mac txPk:vector(packetBytes) ETV
attr interpolationmode none
attr source packetSentToLower
attr title "packets transmitted, vector(packetBytes)"
vector 49 SensorNetworkShowcaseA3.controller.eth[0].mac rxPkOk:vector(packetBytes) ETV
attr interpolationmode none
attr source rxPkOk
attr title "packets received OK, vector(packetBytes)"
vector 50 SensorNetworkShowcaseA3.controller.eth[0].mac passedUpPk:vector(packetBytes) ETV
attr interpolationmode none
attr source packetSentToUpper
attr title "packets passed to higher layer, vector(packetBytes)"
vector 51 SensorNetworkShowcaseA3.controller.eth[0].encap decapPk:vector(packetBytes) ETV
attr interpolationmode none
attr source decapPk
attr title "packets decapsulated, vector(packetBytes)"
vector 52 SensorNetworkShowcaseA3.controller.udp packetReceived:vector(packetBytes) ETV
attr interpolationmode none
attr source packetReceived
attr title "packets received, vector(packetBytes)"
vector 53 SensorNetworkShowcaseA3.controller.udp passedUpPk:vector(count) ETV
attr interpolationmode none
attr source packetSentToUpper
attr title "packets passed up, vector(count)"
vector 54 SensorNetworkShowcaseA3.controller.app[0] packetReceived:vector(packetBytes) ETV
attr interpolationmode none
attr source packetReceived
attr title "packets received, vector(packetBytes)"
vector 55 SensorNetworkShowcaseA3.controller.app[0] throughput:vector ETV
attr source throughput(packetReceived)
attr title "throughput, vector"
attr unit bps
vector 56 SensorNetworkShowcaseA3.controller.app[0] endToEndDelay:vector ETV
attr interpolationmode none
attr source dataAge(packetReceived)
attr title "end-to-end delay, vector"
attr unit s
vector 57 SensorNetworkShowcaseA3.sensor4.app[0] throughput:vector ETV
attr source throughput(packetReceived)
attr title "throughput, vector"
attr unit bps
vector 58 SensorNetworkShowcaseA3.sensor1.app[0] throughput:vector ETV
attr source throughput(packetReceived)
attr title "throughput, vector"
attr unit bps
vector 59 SensorNetworkShowcaseA3.sensor2.app[0] throughput:vector ETV
attr source throughput(packetReceived)
attr title "throughput, vector"
attr unit bps
vector 60 SensorNetworkShowcaseA3.sensor3.app[0] throughput:vector ETV
attr source throughput(packetReceived)
attr title "throughput, vector"
attr unit bps
vector 61 SensorNetworkShowcaseA3.sensor5.app[0] throughput:vector ETV
attr source throughput(packetReceived)
attr title "throughput, vector"
attr unit bps
0	0	0	0
0	0	0	0
0	0	0	0
0	10	0.05	0
0	10	0.05	5e-006
0	19	0.050800009858	0
0	19	0.050800009858	0.05
0	25	0.052150009858	5e-006
0	25	0.052150009858	5e-006
0	26	0.052150009858	1e-006
0	26	0.052150009858	1e-006
0	35	0.053333333333	0
0	35	0.053333333333	5e-006
0	46	0.054280125454	0
0	46	0.054280125454	0.05
0	54	0.055630125454	5e-006
0	54	0.055630125454	5e-006
0	55	0.055630125454	1e-006
0	55	0.055630125454	1e-006
0	60	0.056666666666	0
0	60	0.056666666666	5e-006
0	96	0.064875994387	0
0	96	0.064875994387	0
0	96	0.064875994387	0.005
0	98	0.064875994387	0
0	98	0.064875994387	0.075
0	105	0.066225994387	0.005
0	105	0.066225994387	1e-006
0	105	0.066225994387	1e-006
0	105	0.066225994387	1e-006
0	116	0.066666666665	0
0	116	0.066666666665	5e-006
0	129	0.068060204659	0
0	129	0.068060204659	0.05
0	139	0.069410204659	5e-006
0	139	0.069410204659	5e-006
0	140	0.069410204659	1e-006
0	140	0.069410204659	1e-006
0	141	0.069999999998	0
0	141	0.069999999998	5e-006
0	154	0.070118511358	0
0	154	0.070118511358	0.05
0	164	0.071468511358	5e-006
0	164	0.071468511358	5e-006
0	165	0.071468511358	1e-006
0	165	0.071468511358	1e-006
0	166	0.073333333331	0
0	166	0.073333333331	5e-006
0	178	0.07389574646	0
0	178	0.07389574646	0.05
0	187	0.07524574646	5e-006
0	187	0.07524574646	5e-006
0	188	0.07524574646	1e-006
0	188	0.07524574646	1e-006
0	192	0.076666666664	0
0	192	0.076666666664	5e-006
0	201	0.076811930065	0
0	201	0.076811930065	0.05
0	207	0.078161930065	5e-006
0	207	0.078161930065	5e-006
0	208	0.078161930065	1e-006
0	208	0.078161930065	1e-006
0	218	0.079999999997	0
0	218	0.079999999997	5e-006
0	229	0.081080337639	0
0	229	0.081080337639	0.05
0	238	0.082430337639	5e-006
0	238	0.082430337639	5e-006
0	239	0.082430337639	1e-006
0	239	0.082430337639	1e-006
0	244	0.08333333333	0
0	244	0.08333333333	5e-006
0	276	0.090033697328	0
0	276	0.090033697328	0
0	276	0.090033697328	0.005
0	278	0.090033697328	0
0	278	0.090033697328	0.075
0	284	0.091383697328	0.005
0	284	0.091383697328	1e-006
0	284	0.091383697328	1e-006
0	284	0.091383697328	1e-006
0	296	0.093333333329	0
0	296	0.093333333329	5e-006
0	309	0.093947142604	0
0	309	0.093947142604	0.05
0	319	0.095297142604	5e-006
0	319	0.095297142604	5e-006
0	320	0.095297142604	1e-006
0	320	0.095297142604	1e-006
0	321	0.096666666662	0
0	321	0.096666666662	5e-006
0	334	0.098054484329	0
0	334	0.098054484329	0.05
0	344	0.099404484329	5e-006
0	344	0.099404484329	5e-006
0	345	0.099404484329	1e-006
0	345	0.099404484329	1e-006
0	346	0.099999999995	0
0	346	0.099999999995	5e-006
0	359	0.101595344779	0
0	359	0.101595344779	0.05
0	368	0.102945344779	5e-006
0	368	0.102945344779	5e-006
0	369	0.102945344779	1e-006
0	369	0.102945344779	1e-006
0	372	0.103333333328	0
0	372	0.103333333328	5e-006
0	381	0.104630309162	0
0	381	0.104630309162	0.05
0	388	0.105980309162	5e-006
0	388	0.105980309162	5e-006
0	389	0.105980309162	1e-006
0	389	0.105980309162	1e-006
0	398	0.106666666661	0
0	398	0.106666666661	5e-006
0	409	0.106900635804	0
0	409	0.106900635804	0.05
0	417	0.108250635804	5e-006
0	417	0.108250635804	5e-006
0	418	0.108250635804	1e-006
0	418	0.108250635804	1e-006
0	424	0.109999999994	0
0	424	0.109999999994	5e-006
0	456	0.118116686902	0
0	456	0.118116686902	0
0	456	0.118116686902	0.005
0	458	0.118116686902	0
0	458	0.118116686902	0.075
0	465	0.119466686902	0.005
0	465	0.119466686902	1e-006
0	465	0.119466686902	1e-006
0	465	0.119466686902	1e-006
0	476	0.119999999993	0
0	476	0.119999999993	5e-006
0	489	0.12145021879	0
0	489	0.12145021879	0.05
0	499	0.12280021879	5e-006
0	499	0.12280021879	5e-006
0	500	0.12280021879	1e-006
0	500	0.12280021879	1e-006
0	501	0.123333333326	0
0	501	0.123333333326	5e-006
0	514	0.124964481826	0
0	514	0.124964481826	0.05
0	524	0.126314481826	5e-006
0	524	0.126314481826	5e-006
0	525	0.126314481826	1e-006
0	525	0.126314481826	1e-006
0	526	0.126666666659	0
0	526	0.126666666659	5e-006
0	538	0.127456099585	0
0	538	0.127456099585	0.05
0	547	0.128806099585	5e-006
0	547	0.128806099585	5e-006
0	548	0.128806099585	1e-006
0	548	0.128806099585	1e-006
0	552	0.129999999992	0
0	552	0.129999999992	5e-006
0	561	0.131331978838	0
0	561	0.131331978838	0.05
0	567	0.132681978838	5e-006
0	567	0.132681978838	5e-006
0	568	0.132681978838	1e-006
0	568	0.132681978838	1e-006
0	578	0.133333333325	0
0	578	0.133333333325	5e-006
0	589	0.13466823576	0
0	589	0.13466823576	0.05
0	597	0.13601823576	5e-006
0	597	0.13601823576	5e-006
0	598	0.13601823576	1e-006
0	598	0.13601823576	1e-006
0	604	0.136666666658	0
0	604	0.136666666658	5e-006
0	636	0.144102465595	0
0	636	0.144102465595	0
0	636	0.144102465595	0.005
0	638	0.144102465595	0
0	638	0.144102465595	0.075
0	644	0.145452465595	0.005
0	644	0.145452465595	1e-006
0	644	0.145452465595	1e-006
0	644	0.145452465595	1e-006
0	656	0.146666666657	0
0	656	0.146666666657	5e-006
0	669	0.147534202503	0
0	669	0.147534202503	0.05
0	679	0.148884202503	5e-006
0	679	0.148884202503	5e-006
0	680	0.148884202503	1e-006
0	680	0.148884202503	1e-006
0	681	0.14999999999	0
0	681	0.14999999999	5e-006
0	694	0.151300999878	0
0	694	0.151300999878	0.05
0	704	0.152650999878	5e-006
0	704	0.152650999878	5e-006
0	705	0.152650999878	1e-006
0	705	0.152650999878	1e-006
0	706	0.153333333323	0
0	706	0.153333333323	5e-006
0	718	0.154464885405	0
0	718	0.154464885405	0.05
0	728	0.155814885405	5e-006
0	728	0.155814885405	5e-006
0	729	0.155814885405	1e-006
0	729	0.155814885405	1e-006
0	732	0.156666666656	0
0	732	0.156666666656	5e-006
0	741	0.156863838602	0
0	741	0.156863838602	0.05
0	747	0.158213838602	5e-006
0	747	0.158213838602	5e-006
0	748	0.158213838602	1e-006
0	748	0.158213838602	1e-006
0	758	0.159999999989	0
0	758	0.159999999989	5e-006
0	769	0.161201105589	0
0	769	0.161201105589	0.05
0	777	0.162551105589	5e-006
0	777	0.162551105589	5e-006
0	778	0.162551105589	1e-006
0	778	0.162551105589	1e-006
0	784	0.163333333322	0
0	784	0.163333333322	5e-006
0	816	0.171066535016	0
0	816	0.171066535016	0
0	816	0.171066535016	0.005
0	818	0.171066535016	0
0	818	0.171066535016	0.075
0	824	0.172416535016	0.005
0	824	0.172416535016	1e-006
0	824	0.172416535016	1e-006
0	824	0.172416535016	1e-006
0	836	0.173333333321	0
0	836	0.173333333321	5e-006
0	849	0.174303439685	0
0	849	0.174303439685	0.05
0	859	0.175653439685	5e-006
0	859	0.175653439685	5e-006
0	860	0.175653439685	1e-006
0	860	0.175653439685	1e-006
0	861	0.176666666654	0
0	861	0.176666666654	5e-006
0	874	0.176905706726	0
0	874	0.176905706726	0.05
0	884	0.178255706726	5e-006
0	884	0.178255706726	5e-006
0	885	0.178255706726	1e-006
0	885	0.178255706726	1e-006
0	886	0.179999999987	0
0	886	0.179999999987	5e-006
0	898	0.180895708227	0
0	898	0.180895708227	0.05
0	907	0.182245708227	5e-006
0	907	0.182245708227	5e-006
0	908	0.182245708227	1e-006
0	908	0.182245708227	1e-006
0	912	0.18333333332	0
0	912	0.18333333332	5e-006
0	921	0.184907829424	0
0	921	0.184907829424	0.05
0	928	0.186257829424	5e-006
0	928	0.186257829424	5e-006
0	929	0.186257829424	1e-006
0	929	0.186257829424	1e-006
0	938	0.186666666653	0
0	938	0.186666666653	5e-006
0	949	0.187931077201	0
0	949	0.187931077201	0.05
0	958	0.189281077201	5e-006
0	958	0.189281077201	5e-006
0	959	0.189281077201	1e-006
0	959	0.189281077201	1e-006
0	964	0.189999999986	0
0	964	0.189999999986	5e-006
0	996	0.197536413866	0
0	996	0.197536413866	0
0	996	0.197536413866	0.005
0	998	0.197536413866	0
0	998	0.197536413866	0.075
0	1004	0.198886413866	0.005
0	1004	0.198886413866	1e-006
0	1004	0.198886413866	1e-006
0	1004	0.198886413866	1e-006
0	1016	0.199999999985	0
0	1016	0.199999999985	5e-006
0	1029	0.200176586041	0
0	1029	0.200176586041	0.05
0	1039	0.201526586041	5e-006
0	1039	0.201526586041	5e-006
0	1040	0.201526586041	1e-006
0	1040	0.201526586041	1e-006
0	1041	0.203333333318	0
0	1041	0.203333333318	5e-006
0	1054	0.204024554482	0
0	1054	0.204024554482	0.05
0	1064	0.205374554482	5e-006
0	1064	0.205374554482	5e-006
0	1065	0.205374554482	1e-006
0	1065	0.205374554482	1e-006
0	1066	0.206666666651	0
0	1066	0.206666666651	5e-006
0	1078	0.207456086882	0
0	1078	0.207456086882	0.05
0	1087	0.208806086882	5e-006
0	1087	0.208806086882	5e-006
0	1088	0.208806086882	1e-006
0	1088	0.208806086882	1e-006
0	1092	0.209999999984	0
0	1092	0.209999999984	5e-006
0	1101	0.210440973909	0
0	1101	0.210440973909	0.05
0	1108	0.211790973909	5e-006
0	1108	0.211790973909	5e-006
0	1109	0.211790973909	1e-006
0	1109	0.211790973909	1e-006
0	1118	0.213333333317	0
0	1118	0.213333333317	5e-006
0	1129	0.213643938406	0
0	1129	0.213643938406	0.05
0	1137	0.214993938406	5e-006
0	1137	0.214993938406	5e-006
0	1138	0.214993938406	1e-006
0	1138	0.214993938406	1e-006
0	1144	0.21666666665	0
0	1144	0.21666666665	5e-006
0	1176	0.224623722794	0
0	1176	0.224623722794	0
0	1176	0.224623722794	0.005
0	1178	0.224623722794	0
0	1178	0.224623722794	0.075
0	1185	0.225973722794	0.005
0	1185	0.225973722794	1e-006
0	1185	0.225973722794	1e-006
0	1185	0.225973722794	1e-006
0	1196	0.226666666649	0
0	1196	0.226666666649	5e-006
0	1209	0.227894936991	0
0	1209	0.227894936991	0.05
0	1219	0.229244936991	5e-006
0	1219	0.229244936991	5e-006
0	1220	0.229244936991	1e-006
0	1220	0.229244936991	1e-006
0	1221	0.229999999982	0
0	1221	0.229999999982	5e-006
0	1234	0.230760368471	0
0	1234	0.230760368471	0.05
0	1244	0.232110368471	5e-006
0	1244	0.232110368471	5e-006
0	1245	0.232110368471	1e-006
0	1245	0.232110368471	1e-006
0	1246	0.233333333315	0
0	1246	0.233333333315	5e-006
0	1258	0.233694336769	0
0	1258	0.233694336769	0.05
0	1267	0.235044336769	5e-006
0	1267	0.235044336769	5e-006
0	1268	0.235044336769	1e-006
0	1268	0.235044336769	1e-006
0	1272	0.236666666648	0
0	1272	0.236666666648	5e-006
0	1281	0.237614104468	0
0	1281	0.237614104468	0.05
0	1287	0.238964104468	5e-006
0	1287	0.238964104468	5e-006
0	1288	0.238964104468	1e-006
0	1288	0.238964104468	1e-006
0	1298	0.239999999981	0
0	1298	0.239999999981	5e-006
0	1309	0.240225414784	0
0	1309	0.240225414784	0.05
0	1317	0.241575414784	5e-006
0	1317	0.241575414784	5e-006
0	1318	0.241575414784	1e-006
0	1318	0.241575414784	1e-006
0	1324	0.243333333314	0
0	1324	0.243333333314	5e-006
0	1356	0.25003131631	0
0	1356	0.25003131631	0
0	1356	0.25003131631	0.005
0	1358	0.25003131631	0
0	1358	0.25003131631	0.075
0	1364	0.25138131631	0.005
0	1364	0.25138131631	1e-006
0	1364	0.25138131631	1e-006
0	1364	0.25138131631	1e-006
0	1376	0.253333333313	0
0	1376	0.253333333313	5e-006
0	1389	0.253873641699	0
0	1389	0.253873641699	0.05
0	1399	0.255223641699	5e-006
0	1399	0.255223641699	5e-006
0	1400	0.255223641699	1e-006
0	1400	0.255223641699	1e-006
0	1401	0.256666666646	0
0	1401	0.256666666646	5e-006
0	1414	0.257696177076	0
0	1414	0.257696177076	0.05
0	1424	0.259046177076	5e-006
0	1424	0.259046177076	5e-006
0	1425	0.259046177076	1e-006
0	1425	0.259046177076	1e-006
0	1426	0.259999999979	0
0	1426	0.259999999979	5e-006
0	1438	0.260249544278	0
0	1438	0.260249544278	0.05
0	1448	0.261599544278	5e-006
0	1448	0.261599544278	5e-006
0	1449	0.261599544278	1e-006
0	1449	0.261599544278	1e-006
0	1452	0.263333333312	0
0	1452	0.263333333312	5e-006
0	1461	0.264353540755	0
0	1461	0.264353540755	0.05
0	1468	0.265703540755	5e-006
0	1468	0.265703540755	5e-006
0	1469	0.265703540755	1e-006
0	1469	0.265703540755	1e-006
0	1478	0.266666666645	0
0	1478	0.266666666645	5e-006
0	1489	0.267037253469	0
0	1489	0.267037253469	0.05
0	1497	0.268387253469	5e-006
0	1497	0.268387253469	5e-006
0	1498	0.268387253469	1e-006
0	1498	0.268387253469	1e-006
0	1504	0.269999999978	0
0	1504	0.269999999978	5e-006
0	1536	0.277694889975	0
0	1536	0.277694889975	0
0	1536	0.277694889975	0.005
0	1538	0.277694889975	0
0	1538	0.277694889975	0.075
0	1545	0.279044889975	0.005
0	1545	0.279044889975	1e-006
0	1545	0.279044889975	1e-006
0	1545	0.279044889975	1e-006
0	1556	0.279999999977	0
0	1556	0.279999999977	5e-006
0	1569	0.280644221653	0
0	1569	0.280644221653	0.05
0	1579	0.281994221653	5e-006
0	1579	0.281994221653	5e-006
0	1580	0.281994221653	1e-006
0	1580	0.281994221653	1e-006
0	1581	0.28333333331	0
0	1581	0.28333333331	5e-006
0	1594	0.284906364698	0
0	1594	0.284906364698	0.05
0	1604	0.286256364698	5e-006
0	1604	0.286256364698	5e-006
0	1605	0.286256364698	1e-006
0	1605	0.286256364698	1e-006
0	1606	0.286666666643	0
0	1606	0.286666666643	5e-006
0	1618	0.288171083622	0
0	1618	0.288171083622	0.05
0	1628	0.289521083622	5e-006
0	1628	0.289521083622	5e-006
0	1629	0.289521083622	1e-006
0	1629	0.289521083622	1e-006
0	1632	0.289999999976	0
0	1632	0.289999999976	5e-006
0	1641	0.291136415045	0
0	1641	0.291136415045	0.05
0	1648	0.292486415045	5e-006
0	1648	0.292486415045	5e-006
0	1649	0.292486415045	1e-006
0	1649	0.292486415045	1e-006
0	1658	0.293333333309	0
0	1658	0.293333333309	5e-006
0	1669	0.294083301139	0
0	1669	0.294083301139	0.05
0	1677	0.295433301139	5e-006
0	1677	0.295433301139	5e-006
0	1678	0.295433301139	1e-006
0	1678	0.295433301139	1e-006
0	1684	0.296666666642	0
0	1684	0.296666666642	5e-006
0	1716	0.303932513145	0
0	1716	0.303932513145	0
0	1716	0.303932513145	0.005
0	1718	0.303932513145	0
0	1718	0.303932513145	0.075
0	1724	0.305282513145	0.005
0	1724	0.305282513145	1e-006
0	1724	0.305282513145	1e-006
0	1724	0.305282513145	1e-006
0	1736	0.306666666641	0
0	1736	0.306666666641	5e-006
0	1749	0.307688512456	0
0	1749	0.307688512456	0.05
0	1759	0.309038512456	5e-006
0	1759	0.309038512456	5e-006
0	1760	0.309038512456	1e-006
0	1760	0.309038512456	1e-006
0	1761	0.309999999974	0
0	1761	0.309999999974	5e-006
0	1774	0.310728504491	0
0	1774	0.310728504491	0.05
0	1784	0.312078504491	5e-006
0	1784	0.312078504491	5e-006
0	1785	0.312078504491	1e-006
0	1785	0.312078504491	1e-006
0	1786	0.313333333307	0
0	1786	0.313333333307	5e-006
0	1798	0.314837333797	0
0	1798	0.314837333797	0.05
0	1808	0.316187333797	5e-006
0	1808	0.316187333797	5e-006
0	1809	0.316187333797	1e-006
0	1809	0.316187333797	1e-006
0	1812	0.31666666664	0
0	1812	0.31666666664	5e-006
0	1821	0.317829433205	0
0	1821	0.317829433205	0.05
0	1828	0.319179433205	5e-006
0	1828	0.319179433205	5e-006
0	1829	0.319179433205	1e-006
0	1829	0.319179433205	1e-006
0	1838	0.319999999973	0
0	1838	0.319999999973	5e-006
0	1849	0.320165518407	0
0	1849	0.320165518407	0.05
0	1857	0.321515518407	5e-006
0	1857	0.321515518407	5e-006
0	1858	0.321515518407	1e-006
0	1858	0.321515518407	1e-006
0	1864	0.323333333306	0
0	1864	0.323333333306	5e-006
0	1896	0.330100375749	0
0	1896	0.330100375749	0
0	1896	0.330100375749	0.005
0	1898	0.330100375749	0
0	1898	0.330100375749	0.075
0	1904	0.331450375749	0.005
0	1904	0.331450375749	1e-006
0	1904	0.331450375749	1e-006
0	1904	0.331450375749	1e-006
0	1916	0.333333333305	0
0	1916	0.333333333305	5e-006
0	1929	0.334949755132	0
0	1929	0.334949755132	0.05
0	1939	0.336299755132	5e-006
0	1939	0.336299755132	5e-006
0	1940	0.336299755132	1e-006
0	1940	0.336299755132	1e-006
0	1941	0.336666666638	0
0	1941	0.336666666638	5e-006
0	1954	0.337778062419	0
0	1954	0.337778062419	0.05
0	1964	0.339128062419	5e-006
0	1964	0.339128062419	5e-006
0	1965	0.339128062419	1e-006
0	1965	0.339128062419	1e-006
0	1966	0.339999999971	0
0	1966	0.339999999971	5e-006
0	1978	0.341088652884	0
0	1978	0.341088652884	0.05
0	1988	0.342438652884	5e-006
0	1988	0.342438652884	5e-006
0	1989	0.342438652884	1e-006
0	1989	0.342438652884	1e-006
0	1992	0.343333333304	0
0	1992	0.343333333304	5e-006
0	2001	0.344451110999	0
0	2001	0.344451110999	0.05
0	2007	0.345801110999	5e-006
0	2007	0.345801110999	5e-006
0	2008	0.345801110999	1e-006
0	2008	0.345801110999	1e-006
0	2018	0.346666666637	0
0	2018	0.346666666637	5e-006
0	2029	0.346951567128	0
0	2029	0.346951567128	0.05
0	2037	0.348301567128	5e-006
0	2037	0.348301567128	5e-006
0	2038	0.348301567128	1e-006
0	2038	0.348301567128	1e-006
0	2044	0.34999999997	0
0	2044	0.34999999997	5e-006
0	2076	0.357017304239	0
0	2076	0.357017304239	0
0	2076	0.357017304239	0.005
0	2078	0.357017304239	0
0	2078	0.357017304239	0.075
0	2085	0.358367304239	0.005
0	2085	0.358367304239	1e-006
0	2085	0.358367304239	1e-006
0	2085	0.358367304239	1e-006
0	2096	0.359999999969	0
0	2096	0.359999999969	5e-006
0	2109	0.360596993632	0
0	2109	0.360596993632	0.05
0	2119	0.361946993632	5e-006
0	2119	0.361946993632	5e-006
0	2120	0.361946993632	1e-006
0	2120	0.361946993632	1e-006
0	2121	0.363333333302	0
0	2121	0.363333333302	5e-006
0	2134	0.363548328395	0
0	2134	0.363548328395	0.05
0	2144	0.364898328395	5e-006
0	2144	0.364898328395	5e-006
0	2145	0.364898328395	1e-006
0	2145	0.364898328395	1e-006
0	2146	0.366666666635	0
0	2146	0.366666666635	5e-006
0	2158	0.367917896393	0
0	2158	0.367917896393	0.05
0	2168	0.369267896393	5e-006
0	2168	0.369267896393	5e-006
0	2169	0.369267896393	1e-006
0	2169	0.369267896393	1e-006
0	2172	0.369999999968	0
0	2172	0.369999999968	5e-006
0	2181	0.37052576179	0
0	2181	0.37052576179	0.05
0	2187	0.37187576179	5e-006
0	2187	0.37187576179	5e-006
0	2188	0.37187576179	1e-006
0	2188	0.37187576179	1e-006
0	2198	0.373333333301	0
0	2198	0.373333333301	5e-006
0	2209	0.374346435593	0
0	2209	0.374346435593	0.05
0	2218	0.375696435593	5e-006
0	2218	0.375696435593	5e-006
0	2219	0.375696435593	1e-006
0	2219	0.375696435593	1e-006
0	2224	0.376666666634	0
0	2224	0.376666666634	5e-006
0	2256	0.383939517922	0
0	2256	0.383939517922	0
0	2256	0.383939517922	0.005
0	2258	0.383939517922	0
0	2258	0.383939517922	0.075
0	2264	0.385289517922	0.005
0	2264	0.385289517922	1e-006
0	2264	0.385289517922	1e-006
0	2264	0.385289517922	1e-006
0	2276	0.386666666633	0
0	2276	0.386666666633	5e-006
0	2289	0.387208485391	0
0	2289	0.387208485391	0.05
0	2299	0.388558485391	5e-006
0	2299	0.388558485391	5e-006
0	2300	0.388558485391	1e-006
0	2300	0.388558485391	1e-006
0	2301	0.389999999966	0
0	2301	0.389999999966	5e-006
0	2314	0.390950445855	0
0	2314	0.390950445855	0.05
0	2324	0.392300445855	5e-006
0	2324	0.392300445855	5e-006
0	2325	0.392300445855	1e-006
0	2325	0.392300445855	1e-006
0	2326	0.393333333299	0
0	2326	0.393333333299	5e-006
0	2338	0.393397461868	0
0	2338	0.393397461868	0.05
0	2347	0.394747461868	5e-006
0	2347	0.394747461868	5e-006
0	2348	0.394747461868	1e-006
0	2348	0.394747461868	1e-006
0	2352	0.396666666632	0
0	2352	0.396666666632	5e-006
0	2361	0.39739771706	0
0	2361	0.39739771706	0.05
0	2368	0.39874771706	5e-006
0	2368	0.39874771706	5e-006
0	2369	0.39874771706	1e-006
0	2369	0.39874771706	1e-006
0	2378	0.399999999965	0
0	2378	0.399999999965	5e-006
0	2389	0.401057174568	0
0	2389	0.401057174568	0.05
0	2398	0.402407174568	5e-006
0	2398	0.402407174568	5e-006
0	2399	0.402407174568	1e-006
0	2399	0.402407174568	1e-006
0	2404	0.403333333298	0
0	2404	0.403333333298	5e-006
0	2436	0.411647289684	0
0	2436	0.411647289684	0
0	2436	0.411647289684	0.005
0	2438	0.411647289684	0
0	2438	0.411647289684	0.075
0	2445	0.412997289684	0.005
0	2445	0.412997289684	1e-006
0	2445	0.412997289684	1e-006
0	2445	0.412997289684	1e-006
0	2456	0.413333333297	0
0	2456	0.413333333297	5e-006
0	2469	0.414931655458	0
0	2469	0.414931655458	0.05
0	2479	0.416281655458	5e-006
0	2479	0.416281655458	5e-006
0	2480	0.416281655458	1e-006
0	2480	0.416281655458	1e-006
0	2481	0.41666666663	0
0	2481	0.41666666663	5e-006
0	2494	0.416836859237	0
0	2494	0.416836859237	0.05
0	2504	0.418186859237	5e-006
0	2504	0.418186859237	5e-006
0	2505	0.418186859237	1e-006
0	2505	0.418186859237	1e-006
0	2506	0.419999999963	0
0	2506	0.419999999963	5e-006
0	2518	0.421088070021	0
0	2518	0.421088070021	0.05
0	2527	0.422438070021	5e-006
0	2527	0.422438070021	5e-006
0	2528	0.422438070021	1e-006
0	2528	0.422438070021	1e-006
0	2532	0.423333333296	0
0	2532	0.423333333296	5e-006
0	2541	0.423681509133	0
0	2541	0.423681509133	0.05
0	2547	0.425031509133	5e-006
0	2547	0.425031509133	5e-006
0	2548	0.425031509133	1e-006
0	2548	0.425031509133	1e-006
0	2558	0.426666666629	0
0	2558	0.426666666629	5e-006
0	2569	0.427725149272	0
0	2569	0.427725149272	0.05
0	2578	0.429075149272	5e-006
0	2578	0.429075149272	5e-006
0	2579	0.429075149272	1e-006
0	2579	0.429075149272	1e-006
0	2584	0.429999999962	0
0	2584	0.429999999962	5e-006
0	2616	0.436935515813	0
0	2616	0.436935515813	0
0	2616	0.436935515813	0.005
0	2618	0.436935515813	0
0	2618	0.436935515813	0.075
0	2624	0.438285515813	0.005
0	2624	0.438285515813	1e-006
0	2624	0.438285515813	1e-006
0	2624	0.438285515813	1e-006
0	2636	0.439999999961	0
0	2636	0.439999999961	5e-006
0	2649	0.441658905949	0
0	2649	0.441658905949	0.05
0	2659	0.443008905949	5e-006
0	2659	0.443008905949	5e-006
0	2660	0.443008905949	1e-006
0	2660	0.443008905949	1e-006
0	2661	0.443333333294	0
0	2661	0.443333333294	5e-006
0	2674	0.444421965093	0
0	2674	0.444421965093	0.05
0	2684	0.445771965093	5e-006
0	2684	0.445771965093	5e-006
0	2685	0.445771965093	1e-006
0	2685	0.445771965093	1e-006
0	2686	0.446666666627	0
0	2686	0.446666666627	5e-006
0	2698	0.447636503374	0
0	2698	0.447636503374	0.05
0	2708	0.448986503374	5e-006
0	2708	0.448986503374	5e-006
0	2709	0.448986503374	1e-006
0	2709	0.448986503374	1e-006
0	2712	0.44999999996	0
0	2712	0.44999999996	5e-006
0	2721	0.450422200535	0
0	2721	0.450422200535	0.05
0	2727	0.451772200535	5e-006
0	2727	0.451772200535	5e-006
0	2728	0.451772200535	1e-006
0	2728	0.451772200535	1e-006
0	2738	0.453333333293	0
0	2738	0.453333333293	5e-006
0	2749	0.454023998787	0
0	2749	0.454023998787	0.05
0	2757	0.455373998787	5e-006
0	2757	0.455373998787	5e-006
0	2758	0.455373998787	1e-006
0	2758	0.455373998787	1e-006
0	2764	0.456666666626	0
0	2764	0.456666666626	5e-006
0	2796	0.464110517913	0
0	2796	0.464110517913	0
0	2796	0.464110517913	0.005
0	2798	0.464110517913	0
0	2798	0.464110517913	0.075
0	2805	0.465460517913	0.005
0	2805	0.465460517913	1e-006
0	2805	0.465460517913	1e-006
0	2805	0.465460517913	1e-006
0	2816	0.466666666625	0
0	2816	0.466666666625	5e-006
0	2829	0.467457902513	0
0	2829	0.467457902513	0.05
0	2839	0.468807902513	5e-006
0	2839	0.468807902513	5e-006
0	2840	0.468807902513	1e-006
0	2840	0.468807902513	1e-006
0	2841	0.469999999958	0
0	2841	0.469999999958	5e-006
0	2854	0.470407493867	0
0	2854	0.470407493867	0.05
0	2864	0.471757493867	5e-006
0	2864	0.471757493867	5e-006
0	2865	0.471757493867	1e-006
0	2865	0.471757493867	1e-006
0	2866	0.473333333291	0
0	2866	0.473333333291	5e-006
0	2878	0.474372602994	0
0	2878	0.474372602994	0.05
0	2888	0.475722602994	5e-006
0	2888	0.475722602994	5e-006
0	2889	0.475722602994	1e-006
0	2889	0.475722602994	1e-006
0	2892	0.476666666624	0
0	2892	0.476666666624	5e-006
0	2901	0.476931663841	0
0	2901	0.476931663841	0.05
0	2907	0.478281663841	5e-006
0	2907	0.478281663841	5e-006
0	2908	0.478281663841	1e-006
0	2908	0.478281663841	1e-006
0	2918	0.479999999957	0
0	2918	0.479999999957	5e-006
0	2929	0.480563397167	0
0	2929	0.480563397167	0.05
0	2938	0.481913397167	5e-006
0	2938	0.481913397167	5e-006
0	2939	0.481913397167	1e-006
0	2939	0.481913397167	1e-006
0	2944	0.48333333329	0
0	2944	0.48333333329	5e-006
0	2981	0.49112458716	0
0	2981	0.49112458716	0
0	2981	0.49112458716	0.005
0	2983	0.49112458716	0
0	2983	0.49112458716	0.075
0	2990	0.49247458716	0.005
0	2990	0.49247458716	1e-006
0	2990	0.49247458716	1e-006
0	2990	0.49247458716	1e-006
0	3001	0.493333333289	0
0	3001	0.493333333289	5e-006
0	3014	0.494427289321	0
0	3014	0.494427289321	0.05
0	3024	0.495777289321	5e-006
0	3024	0.495777289321	5e-006
0	3025	0.495777289321	1e-006
0	3025	0.495777289321	1e-006
0	3026	0.496666666622	0
0	3026	0.496666666622	5e-006
0	3039	0.497195454126	0
0	3039	0.497195454126	0.05
0	3049	0.498545454126	5e-006
0	3049	0.498545454126	5e-006
0	3050	0.498545454126	1e-006
0	3050	0.498545454126	1e-006
0	3051	0.499999999955	0
0	3051	0.499999999955	5e-006
0	3063	0.500230391064	0
0	3063	0.500230391064	0.05
0	3072	0.501580391064	5e-006
0	3072	0.501580391064	5e-006
0	3073	0.501580391064	1e-006
0	3073	0.501580391064	1e-006
0	3077	0.503333333288	0
0	3077	0.503333333288	5e-006
0	3086	0.504630623664	0
0	3086	0.504630623664	0.05
0	3093	0.505980623664	5e-006
0	3093	0.505980623664	5e-006
0	3094	0.505980623664	1e-006
0	3094	0.505980623664	1e-006
0	3103	0.506666666621	0
0	3103	0.506666666621	5e-006
0	3114	0.506994355063	0
0	3114	0.506994355063	0.05
0	3122	0.508344355063	5e-006
0	3122	0.508344355063	5e-006
0	3123	0.508344355063	1e-006
0	3123	0.508344355063	1e-006
0	3129	0.509999999954	0
0	3129	0.509999999954	5e-006
0	3161	0.518249285039	0
0	3161	0.518249285039	0
0	3161	0.518249285039	0.005
0	3163	0.518249285039	0
0	3163	0.518249285039	0.075
0	3170	0.519599285039	0.005
0	3170	0.519599285039	1e-006
0	3170	0.519599285039	1e-006
0	3170	0.519599285039	1e-006
0	3181	0.519999999953	0
0	3181	0.519999999953	5e-006
0	3194	0.520614615275	0
0	3194	0.520614615275	0.05
0	3204	0.521964615275	5e-006
0	3204	0.521964615275	5e-006
0	3205	0.521964615275	1e-006
0	3205	0.521964615275	1e-006
0	3206	0.523333333286	0
0	3206	0.523333333286	5e-006
0	3219	0.524437662662	0
0	3219	0.524437662662	0.05
0	3229	0.525787662662	5e-006
0	3229	0.525787662662	5e-006
0	3230	0.525787662662	1e-006
0	3230	0.525787662662	1e-006
0	3231	0.526666666619	0
0	3231	0.526666666619	5e-006
0	3243	0.528035074864	0
0	3243	0.528035074864	0.05
0	3252	0.529385074864	5e-006
0	3252	0.529385074864	5e-006
0	3253	0.529385074864	1e-006
0	3253	0.529385074864	1e-006
0	3257	0.529999999952	0
0	3257	0.529999999952	5e-006
0	3266	0.530022667261	0
0	3266	0.530022667261	0.05
0	3272	0.531372667261	5e-006
0	3272	0.531372667261	5e-006
0	3273	0.531372667261	1e-006
0	3273	0.531372667261	1e-006
0	3283	0.533333333285	0
0	3283	0.533333333285	5e-006
0	3294	0.533495219918	0
0	3294	0.533495219918	0.05
0	3302	0.534845219918	5e-006
0	3302	0.534845219918	5e-006
0	3303	0.534845219918	1e-006
0	3303	0.534845219918	1e-006
0	3309	0.536666666618	0
0	3309	0.536666666618	5e-006
0	3341	0.544371410106	0
0	3341	0.544371410106	0
0	3341	0.544371410106	0.005
0	3343	0.544371410106	0
0	3343	0.544371410106	0.075
0	3350	0.545721410106	0.005
0	3350	0.545721410106	1e-006
0	3350	0.545721410106	1e-006
0	3350	0.545721410106	1e-006
0	3361	0.546666666617	0
0	3361	0.546666666617	5e-006
0	3374	0.54806331484	0
0	3374	0.54806331484	0.05
0	3384	0.54941331484	5e-006
0	3384	0.54941331484	5e-006
0	3385	0.54941331484	1e-006
0	3385	0.54941331484	1e-006
0	3386	0.54999999995	0
0	3386	0.54999999995	5e-006
0	3399	0.551122883931	0
0	3399	0.551122883931	0.05
0	3409	0.552472883931	5e-006
0	3409	0.552472883931	5e-006
0	3410	0.552472883931	1e-006
0	3410	0.552472883931	1e-006
0	3411	0.553333333283	0
0	3411	0.553333333283	5e-006
0	3423	0.553493583478	0
0	3423	0.553493583478	0.05
0	3432	0.554843583478	5e-006
0	3432	0.554843583478	5e-006
0	3433	0.554843583478	1e-006
0	3433	0.554843583478	1e-006
0	3437	0.556666666616	0
0	3437	0.556666666616	5e-006
0	3446	0.558286622854	0
0	3446	0.558286622854	0.05
0	3453	0.559636622854	5e-006
0	3453	0.559636622854	5e-006
0	3454	0.559636622854	1e-006
0	3454	0.559636622854	1e-006
0	3463	0.559999999949	0
0	3463	0.559999999949	5e-006
0	3474	0.561627483572	0
0	3474	0.561627483572	0.05
0	3483	0.562977483572	5e-006
0	3483	0.562977483572	5e-006
0	3484	0.562977483572	1e-006
0	3484	0.562977483572	1e-006
0	3489	0.563333333282	0
0	3489	0.563333333282	5e-006
0	3521	0.571463655729	0
0	3521	0.571463655729	0
0	3521	0.571463655729	0.005
0	3523	0.571463655729	0
0	3523	0.571463655729	0.075
0	3529	0.572813655729	0.005
0	3529	0.572813655729	1e-006
0	3529	0.572813655729	1e-006
0	3529	0.572813655729	1e-006
0	3541	0.573333333281	0
0	3541	0.573333333281	5e-006
0	3554	0.574114491991	0
0	3554	0.574114491991	0.05
0	3564	0.575464491991	5e-006
0	3564	0.575464491991	5e-006
0	3565	0.575464491991	1e-006
0	3565	0.575464491991	1e-006
0	3566	0.576666666614	0
0	3566	0.576666666614	5e-006
0	3579	0.577516158496	0
0	3579	0.577516158496	0.05
0	3589	0.578866158496	5e-006
0	3589	0.578866158496	5e-006
0	3590	0.578866158496	1e-006
0	3590	0.578866158496	1e-006
0	3591	0.579999999947	0
0	3591	0.579999999947	5e-006
0	3603	0.581628021291	0
0	3603	0.581628021291	0.05
0	3613	0.582978021291	5e-006
0	3613	0.582978021291	5e-006
0	3614	0.582978021291	1e-006
0	3614	0.582978021291	1e-006
0	3617	0.58333333328	0
0	3617	0.58333333328	5e-006
0	3626	0.583426239008	0
0	3626	0.583426239008	0.05
0	3632	0.584776239008	5e-006
0	3632	0.584776239008	5e-006
0	3633	0.584776239008	1e-006
0	3633	0.584776239008	1e-006
0	3643	0.586666666613	0
0	3643	0.586666666613	5e-006
0	3654	0.587674793657	0
0	3654	0.587674793657	0.05
0	3663	0.589024793657	5e-006
0	3663	0.589024793657	5e-006
0	3664	0.589024793657	1e-006
0	3664	0.589024793657	1e-006
0	3669	0.589999999946	0
0	3669	0.589999999946	5e-006
0	3701	0.597418598635	0
0	3701	0.597418598635	0
0	3701	0.597418598635	0.005
0	3703	0.597418598635	0
0	3703	0.597418598635	0.075
0	3709	0.598768598635	0.005
0	3709	0.598768598635	1e-006
0	3709	0.598768598635	1e-006
0	3709	0.598768598635	1e-006
0	3721	0.599999999945	0
0	3721	0.599999999945	5e-006
0	3734	0.601232179293	0
0	3734	0.601232179293	0.05
0	3744	0.602582179293	5e-006
0	3744	0.602582179293	5e-006
0	3745	0.602582179293	1e-006
0	3745	0.602582179293	1e-006
0	3746	0.603333333278	0
0	3746	0.603333333278	5e-006
0	3759	0.603366763994	0
0	3759	0.603366763994	0.05
0	3769	0.604716763994	5e-006
0	3769	0.604716763994	5e-006
0	3770	0.604716763994	1e-006
0	3770	0.604716763994	1e-006
0	3771	0.606666666611	0
0	3771	0.606666666611	5e-006
0	3783	0.606732065786	0
0	3783	0.606732065786	0.05
0	3792	0.608082065786	5e-006
0	3792	0.608082065786	5e-006
0	3793	0.608082065786	1e-006
0	3793	0.608082065786	1e-006
0	3797	0.609999999944	0
0	3797	0.609999999944	5e-006
0	3806	0.610736232719	0
0	3806	0.610736232719	0.05
0	3812	0.612086232719	5e-006
0	3812	0.612086232719	5e-006
0	3813	0.612086232719	1e-006
0	3813	0.612086232719	1e-006
0	3823	0.613333333277	0
0	3823	0.613333333277	5e-006
0	3834	0.61380472939	0
0	3834	0.61380472939	0.05
0	3843	0.61515472939	5e-006
0	3843	0.61515472939	5e-006
0	3844	0.61515472939	1e-006
0	3844	0.61515472939	1e-006
0	3849	0.61666666661	0
0	3849	0.61666666661	5e-006
0	3881	0.624965977827	0
0	3881	0.624965977827	0
0	3881	0.624965977827	0.005
0	3883	0.624965977827	0
0	3883	0.624965977827	0.075
0	3890	0.626315977827	0.005
0	3890	0.626315977827	1e-006
0	3890	0.626315977827	1e-006
0	3890	0.626315977827	1e-006
0	3901	0.626666666609	0
0	3901	0.626666666609	5e-006
0	3914	0.626867067596	0
0	3914	0.626867067596	0.05
0	3924	0.628217067596	5e-006
0	3924	0.628217067596	5e-006
0	3925	0.628217067596	1e-006
0	3925	0.628217067596	1e-006
0	3926	0.629999999942	0
0	3926	0.629999999942	5e-006
0	3939	0.630599191986	0
0	3939	0.630599191986	0.05
0	3949	0.631949191986	5e-006
0	3949	0.631949191986	5e-006
0	3950	0.631949191986	1e-006
0	3950	0.631949191986	1e-006
0	3951	0.633333333275	0
0	3951	0.633333333275	5e-006
0	3963	0.633826986467	0
0	3963	0.633826986467	0.05
0	3972	0.635176986467	5e-006
0	3972	0.635176986467	5e-006
0	3973	0.635176986467	1e-006
0	3973	0.635176986467	1e-006
0	3977	0.636666666608	0
0	3977	0.636666666608	5e-006
0	3986	0.637468203741	0
0	3986	0.637468203741	0.05
0	3993	0.638818203741	5e-006
0	3993	0.638818203741	5e-006
0	3994	0.638818203741	1e-006
0	3994	0.638818203741	1e-006
0	4003	0.639999999941	0
0	4003	0.639999999941	5e-006
0	4014	0.640197930646	0
0	4014	0.640197930646	0.05
0	4022	0.641547930646	5e-006
0	4022	0.641547930646	5e-006
0	4023	0.641547930646	1e-006
0	4023	0.641547930646	1e-006
0	4029	0.643333333274	0
0	4029	0.643333333274	5e-006
0	4066	0.650529971895	0
0	4066	0.650529971895	0
0	4066	0.650529971895	0.005
0	4068	0.650529971895	0
0	4068	0.650529971895	0.075
0	4075	0.651879971895	0.005
0	4075	0.651879971895	1e-006
0	4075	0.651879971895	1e-006
0	4075	0.651879971895	1e-006
0	4086	0.653333333273	0
0	4086	0.653333333273	5e-006
0	4099	0.654800866474	0
0	4099	0.654800866474	0.05
0	4109	0.656150866474	5e-006
0	4109	0.656150866474	5e-006
0	4110	0.656150866474	1e-006
0	4110	0.656150866474	1e-006
0	4111	0.656666666606	0
0	4111	0.656666666606	5e-006
0	4124	0.657357222849	0
0	4124	0.657357222849	0.05
0	4134	0.658707222849	5e-006
0	4134	0.658707222849	5e-006
0	4135	0.658707222849	1e-006
0	4135	0.658707222849	1e-006
0	4136	0.659999999939	0
0	4136	0.659999999939	5e-006
0	4148	0.661530478587	0
0	4148	0.661530478587	0.05
0	4158	0.662880478587	5e-006
0	4158	0.662880478587	5e-006
0	4159	0.662880478587	1e-006
0	4159	0.662880478587	1e-006
0	4162	0.663333333272	0
0	4162	0.663333333272	5e-006
0	4171	0.66344029368	0
0	4171	0.66344029368	0.05
0	4177	0.66479029368	5e-006
0	4177	0.66479029368	5e-006
0	4178	0.66479029368	1e-006
0	4178	0.66479029368	1e-006
0	4188	0.666666666605	0
0	4188	0.666666666605	5e-006
0	4199	0.667028088008	0
0	4199	0.667028088008	0.05
0	4207	0.668378088008	5e-006
0	4207	0.668378088008	5e-006
0	4208	0.668378088008	1e-006
0	4208	0.668378088008	1e-006
0	4214	0.669999999938	0
0	4214	0.669999999938	5e-006
0	4246	0.677820786803	0
0	4246	0.677820786803	0
0	4246	0.677820786803	0.005
0	4248	0.677820786803	0
0	4248	0.677820786803	0.075
0	4255	0.679170786803	0.005
0	4255	0.679170786803	1e-006
0	4255	0.679170786803	1e-006
0	4255	0.679170786803	1e-006
0	4266	0.679999999937	0
0	4266	0.679999999937	5e-006
0	4279	0.680942054759	0
0	4279	0.680942054759	0.05
0	4289	0.682292054759	5e-006
0	4289	0.682292054759	5e-006
0	4290	0.682292054759	1e-006
0	4290	0.682292054759	1e-006
0	4291	0.68333333327	0
0	4291	0.68333333327	5e-006
0	4304	0.684277786946	0
0	4304	0.684277786946	0.05
0	4314	0.685627786946	5e-006
0	4314	0.685627786946	5e-006
0	4315	0.685627786946	1e-006
0	4315	0.685627786946	1e-006
0	4316	0.686666666603	0
0	4316	0.686666666603	5e-006
0	4328	0.688108590403	0
0	4328	0.688108590403	0.05
0	4338	0.689458590403	5e-006
0	4338	0.689458590403	5e-006
0	4339	0.689458590403	1e-006
0	4339	0.689458590403	1e-006
0	4342	0.689999999936	0
0	4342	0.689999999936	5e-006
0	4351	0.690442363661	0
0	4351	0.690442363661	0.05
0	4357	0.691792363661	5e-006
0	4357	0.691792363661	5e-006
0	4358	0.691792363661	1e-006
0	4358	0.691792363661	1e-006
0	4368	0.693333333269	0
0	4368	0.693333333269	5e-006
0	4379	0.694181666052	0
0	4379	0.694181666052	0.05
0	4387	0.695531666052	5e-006
0	4387	0.695531666052	5e-006
0	4388	0.695531666052	1e-006
0	4388	0.695531666052	1e-006
0	4394	0.696666666602	0
0	4394	0.696666666602	5e-006
0	4426	0.704205413356	0
0	4426	0.704205413356	0
0	4426	0.704205413356	0.005
0	4428	0.704205413356	0
0	4428	0.704205413356	0.075
0	4435	0.705555413356	0.005
0	4435	0.705555413356	1e-006
0	4435	0.705555413356	1e-006
0	4435	0.705555413356	1e-006
0	4446	0.706666666601	0
0	4446	0.706666666601	5e-006
0	4459	0.708194611574	0
0	4459	0.708194611574	0.05
0	4469	0.709544611574	5e-006
0	4469	0.709544611574	5e-006
0	4470	0.709544611574	1e-006
0	4470	0.709544611574	1e-006
0	4471	0.709999999934	0
0	4471	0.709999999934	5e-006
0	4484	0.710156685373	0
0	4484	0.710156685373	0.05
0	4494	0.711506685373	5e-006
0	4494	0.711506685373	5e-006
0	4495	0.711506685373	1e-006
0	4495	0.711506685373	1e-006
0	4496	0.713333333267	0
0	4496	0.713333333267	5e-006
0	4508	0.714868682147	0
0	4508	0.714868682147	0.05
0	4518	0.716218682147	5e-006
0	4518	0.716218682147	5e-006
0	4519	0.716218682147	1e-006
0	4519	0.716218682147	1e-006
0	4522	0.7166666666	0
0	4522	0.7166666666	5e-006
0	4531	0.717626625331	0
0	4531	0.717626625331	0.05
0	4537	0.718976625331	5e-006
0	4537	0.718976625331	5e-006
0	4538	0.718976625331	1e-006
0	4538	0.718976625331	1e-006
0	4548	0.719999999933	0
0	4548	0.719999999933	5e-006
0	4559	0.720138571925	0
0	4559	0.720138571925	0.05
0	4567	0.721488571925	5e-006
0	4567	0.721488571925	5e-006
0	4568	0.721488571925	1e-006
0	4568	0.721488571925	1e-006
0	4574	0.723333333266	0
0	4574	0.723333333266	5e-006
0	4607	0.731548826928	0
0	4607	0.731548826928	0
0	4607	0.731548826928	0.005
0	4609	0.731548826928	0
0	4609	0.731548826928	0.075
0	4615	0.732898826928	0.005
0	4615	0.732898826928	1e-006
0	4615	0.732898826928	1e-006
0	4615	0.732898826928	1e-006
0	4626	0.733333333265	0
0	4626	0.733333333265	5e-006
0	4639	0.733796270917	0
0	4639	0.733796270917	0.05
0	4649	0.735146270917	5e-006
0	4649	0.735146270917	5e-006
0	4650	0.735146270917	1e-006
0	4650	0.735146270917	1e-006
0	4651	0.736666666598	0
0	4651	0.736666666598	5e-006
0	4664	0.737197732785	0
0	4664	0.737197732785	0.05
0	4674	0.738547732785	5e-006
0	4674	0.738547732785	5e-006
0	4675	0.738547732785	1e-006
0	4675	0.738547732785	1e-006
0	4676	0.739999999931	0
0	4676	0.739999999931	5e-006
0	4688	0.740015680627	0
0	4688	0.740015680627	0.05
0	4697	0.741365680627	5e-006
0	4697	0.741365680627	5e-006
0	4698	0.741365680627	1e-006
0	4698	0.741365680627	1e-006
0	4702	0.743333333264	0
0	4702	0.743333333264	5e-006
0	4711	0.744445731797	0
0	4711	0.744445731797	0.05
0	4718	0.745795731797	5e-006
0	4718	0.745795731797	5e-006
0	4719	0.745795731797	1e-006
0	4719	0.745795731797	1e-006
0	4728	0.746666666597	0
0	4728	0.746666666597	5e-006
0	4739	0.748070621243	0
0	4739	0.748070621243	0.05
0	4748	0.749420621243	5e-006
0	4748	0.749420621243	5e-006
0	4749	0.749420621243	1e-006
0	4749	0.749420621243	1e-006
0	4754	0.74999999993	0
0	4754	0.74999999993	5e-006
0	4786	0.756886329699	0
0	4786	0.756886329699	0
0	4786	0.756886329699	0.005
0	4788	0.756886329699	0
0	4788	0.756886329699	0.075
0	4794	0.758236329699	0.005
0	4794	0.758236329699	1e-006
0	4794	0.758236329699	1e-006
0	4794	0.758236329699	1e-006
0	4806	0.759999999929	0
0	4806	0.759999999929	5e-006
0	4819	0.761078696872	0
0	4819	0.761078696872	0.05
0	4829	0.762428696872	5e-006
0	4829	0.762428696872	5e-006
0	4830	0.762428696872	1e-006
0	4830	0.762428696872	1e-006
0	4831	0.763333333262	0
0	4831	0.763333333262	5e-006
0	4844	0.764527329854	0
0	4844	0.764527329854	0.05
0	4854	0.765877329854	5e-006
0	4854	0.765877329854	5e-006
0	4855	0.765877329854	1e-006
0	4855	0.765877329854	1e-006
0	4856	0.766666666595	0
0	4856	0.766666666595	5e-006
0	4868	0.768069062992	0
0	4868	0.768069062992	0.05
0	4878	0.769419062992	5e-006
0	4878	0.769419062992	5e-006
0	4879	0.769419062992	1e-006
0	4879	0.769419062992	1e-006
0	4882	0.769999999928	0
0	4882	0.769999999928	5e-006
0	4891	0.770482391319	0
0	4891	0.770482391319	0.05
0	4897	0.771832391319	5e-006
0	4897	0.771832391319	5e-006
0	4898	0.771832391319	1e-006
0	4898	0.771832391319	1e-006
0	4908	0.773333333261	0
0	4908	0.773333333261	5e-006
0	4919	0.773774601383	0
0	4919	0.773774601383	0.05
0	4927	0.775124601383	5e-006
0	4927	0.775124601383	5e-006
0	4928	0.775124601383	1e-006
0	4928	0.775124601383	1e-006
0	4934	0.776666666594	0
0	4934	0.776666666594	5e-006
0	4966	0.783638652199	0
0	4966	0.783638652199	0
0	4966	0.783638652199	0.005
0	4968	0.783638652199	0
0	4968	0.783638652199	0.075
0	4974	0.784988652199	0.005
0	4974	0.784988652199	1e-006
0	4974	0.784988652199	1e-006
0	4974	0.784988652199	1e-006
0	4986	0.786666666593	0
0	4986	0.786666666593	5e-006
0	4999	0.787329774558	0
0	4999	0.787329774558	0.05
0	5009	0.788679774558	5e-006
0	5009	0.788679774558	5e-006
0	5010	0.788679774558	1e-006
0	5010	0.788679774558	1e-006
0	5011	0.789999999926	0
0	5011	0.789999999926	5e-006
0	5024	0.79097763941	0
0	5024	0.79097763941	0.05
0	5034	0.79232763941	5e-006
0	5034	0.79232763941	5e-006
0	5035	0.79232763941	1e-006
0	5035	0.79232763941	1e-006
0	5036	0.793333333259	0
0	5036	0.793333333259	5e-006
0	5048	0.794254788592	0
0	5048	0.794254788592	0.05
0	5058	0.795604788592	5e-006
0	5058	0.795604788592	5e-006
0	5059	0.795604788592	1e-006
0	5059	0.795604788592	1e-006
0	5062	0.796666666592	0
0	5062	0.796666666592	5e-006
0	5071	0.796700227082	0
0	5071	0.796700227082	0.05
0	5077	0.798050227082	5e-006
0	5077	0.798050227082	5e-006
0	5078	0.798050227082	1e-006
0	5078	0.798050227082	1e-006
0	5088	0.799999999925	0
0	5088	0.799999999925	5e-006
0	5099	0.800274951874	0
0	5099	0.800274951874	0.05
0	5107	0.801624951874	5e-006
0	5107	0.801624951874	5e-006
0	5108	0.801624951874	1e-006
0	5108	0.801624951874	1e-006
0	5114	0.803333333258	0
0	5114	0.803333333258	5e-006
0	5146	0.811381566638	0
0	5146	0.811381566638	0
0	5146	0.811381566638	0.005
0	5148	0.811381566638	0
0	5148	0.811381566638	0.075
0	5155	0.812731566638	0.005
0	5155	0.812731566638	1e-006
0	5155	0.812731566638	1e-006
0	5155	0.812731566638	1e-006
0	5166	0.813333333257	0
0	5166	0.813333333257	5e-006
0	5179	0.813949753462	0
0	5179	0.813949753462	0.05
0	5189	0.815299753462	5e-006
0	5189	0.815299753462	5e-006
0	5190	0.815299753462	1e-006
0	5190	0.815299753462	1e-006
0	5191	0.81666666659	0
0	5191	0.81666666659	5e-006
0	5204	0.816674610322	0
0	5204	0.816674610322	0.05
0	5214	0.818024610322	5e-006
0	5214	0.818024610322	5e-006
0	5215	0.818024610322	1e-006
0	5215	0.818024610322	1e-006
0	5216	0.819999999923	0
0	5216	0.819999999923	5e-006
0	5228	0.820244155721	0
0	5228	0.820244155721	0.05
0	5237	0.821594155721	5e-006
0	5237	0.821594155721	5e-006
0	5238	0.821594155721	1e-006
0	5238	0.821594155721	1e-006
0	5242	0.823333333256	0
0	5242	0.823333333256	5e-006
0	5251	0.824463075394	0
0	5251	0.824463075394	0.05
0	5258	0.825813075394	5e-006
0	5258	0.825813075394	5e-006
0	5259	0.825813075394	1e-006
0	5259	0.825813075394	1e-006
0	5268	0.826666666589	0
0	5268	0.826666666589	5e-006
0	5279	0.827616081777	0
0	5279	0.827616081777	0.05
0	5288	0.828966081777	5e-006
0	5288	0.828966081777	5e-006
0	5289	0.828966081777	1e-006
0	5289	0.828966081777	1e-006
0	5294	0.829999999922	0
0	5294	0.829999999922	5e-006
0	5326	0.837116679869	0
0	5326	0.837116679869	0
0	5326	0.837116679869	0.005
0	5328	0.837116679869	0
0	5328	0.837116679869	0.075
0	5334	0.838466679869	0.005
0	5334	0.838466679869	1e-006
0	5334	0.838466679869	1e-006
0	5334	0.838466679869	1e-006
0	5346	0.839999999921	0
0	5346	0.839999999921	5e-006
0	5359	0.841172968768	0
0	5359	0.841172968768	0.05
0	5369	0.842522968768	5e-006
0	5369	0.842522968768	5e-006
0	5370	0.842522968768	1e-006
0	5370	0.842522968768	1e-006
0	5371	0.843333333254	0
0	5371	0.843333333254	5e-006
0	5384	0.84455877455	0
0	5384	0.84455877455	0.05
0	5394	0.84590877455	5e-006
0	5394	0.84590877455	5e-006
0	5395	0.84590877455	1e-006
0	5395	0.84590877455	1e-006
0	5396	0.846666666587	0
0	5396	0.846666666587	5e-006
0	5408	0.847147546834	0
0	5408	0.847147546834	0.05
0	5418	0.848497546834	5e-006
0	5418	0.848497546834	5e-006
0	5419	0.848497546834	1e-006
0	5419	0.848497546834	1e-006
0	5422	0.84999999992	0
0	5422	0.84999999992	5e-006
0	5431	0.851603695401	0
0	5431	0.851603695401	0.05
0	5438	0.852953695401	5e-006
0	5438	0.852953695401	5e-006
0	5439	0.852953695401	1e-006
0	5439	0.852953695401	1e-006
0	5448	0.853333333253	0
0	5448	0.853333333253	5e-006
0	5459	0.854055531207	0
0	5459	0.854055531207	0.05
0	5467	0.855405531207	5e-006
0	5467	0.855405531207	5e-006
0	5468	0.855405531207	1e-006
0	5468	0.855405531207	1e-006
0	5474	0.856666666586	0
0	5474	0.856666666586	5e-006
0	5506	0.863747921818	0
0	5506	0.863747921818	0
0	5506	0.863747921818	0.005
0	5508	0.863747921818	0
0	5508	0.863747921818	0.075
0	5514	0.865097921818	0.005
0	5514	0.865097921818	1e-006
0	5514	0.865097921818	1e-006
0	5514	0.865097921818	1e-006
0	5526	0.866666666585	0
0	5526	0.866666666585	5e-006
0	5539	0.867926917783	0
0	5539	0.867926917783	0.05
0	5549	0.869276917783	5e-006
0	5549	0.869276917783	5e-006
0	5550	0.869276917783	1e-006
0	5550	0.869276917783	1e-006
0	5551	0.869999999918	0
0	5551	0.869999999918	5e-006
0	5564	0.870960380073	0
0	5564	0.870960380073	0.05
0	5574	0.872310380073	5e-006
0	5574	0.872310380073	5e-006
0	5575	0.872310380073	1e-006
0	5575	0.872310380073	1e-006
0	5576	0.873333333251	0
0	5576	0.873333333251	5e-006
0	5588	0.873993583241	0
0	5588	0.873993583241	0.05
0	5598	0.875343583241	5e-006
0	5598	0.875343583241	5e-006
0	5599	0.875343583241	1e-006
0	5599	0.875343583241	1e-006
0	5602	0.876666666584	0
0	5602	0.876666666584	5e-006
0	5611	0.877653451034	0
0	5611	0.877653451034	0.05
0	5617	0.879003451034	5e-006
0	5617	0.879003451034	5e-006
0	5618	0.879003451034	1e-006
0	5618	0.879003451034	1e-006
0	5628	0.879999999917	0
0	5628	0.879999999917	5e-006
0	5639	0.881493448413	0
0	5639	0.881493448413	0.05
0	5648	0.882843448413	5e-006
0	5648	0.882843448413	5e-006
0	5649	0.882843448413	1e-006
0	5649	0.882843448413	1e-006
0	5654	0.88333333325	0
0	5654	0.88333333325	5e-006
0	5686	0.890953753085	0
0	5686	0.890953753085	0
0	5686	0.890953753085	0.005
0	5688	0.890953753085	0
0	5688	0.890953753085	0.075
0	5694	0.892303753085	0.005
0	5694	0.892303753085	1e-006
0	5694	0.892303753085	1e-006
0	5694	0.892303753085	1e-006
0	5706	0.893333333249	0
0	5706	0.893333333249	5e-006
0	5719	0.894398275095	0
0	5719	0.894398275095	0.05
0	5729	0.895748275095	5e-006
0	5729	0.895748275095	5e-006
0	5730	0.895748275095	1e-006
0	5730	0.895748275095	1e-006
0	5731	0.896666666582	0
0	5731	0.896666666582	5e-006
0	5744	0.897038587229	0
0	5744	0.897038587229	0.05
0	5754	0.898388587229	5e-006
0	5754	0.898388587229	5e-006
0	5755	0.898388587229	1e-006
0	5755	0.898388587229	1e-006
0	5756	0.899999999915	0
0	5756	0.899999999915	5e-006
0	5768	0.901486010159	0
0	5768	0.901486010159	0.05
0	5778	0.902836010159	5e-006
0	5778	0.902836010159	5e-006
0	5779	0.902836010159	1e-006
0	5779	0.902836010159	1e-006
0	5782	0.903333333248	0
0	5782	0.903333333248	5e-006
0	5791	0.904921296169	0
0	5791	0.904921296169	0.05
0	5798	0.906271296169	5e-006
0	5798	0.906271296169	5e-006
0	5799	0.906271296169	1e-006
0	5799	0.906271296169	1e-006
0	5808	0.906666666581	0
0	5808	0.906666666581	5e-006
0	5819	0.907800143717	0
0	5819	0.907800143717	0.05
0	5828	0.909150143717	5e-006
0	5828	0.909150143717	5e-006
0	5829	0.909150143717	1e-006
0	5829	0.909150143717	1e-006
0	5834	0.909999999914	0
0	5834	0.909999999914	5e-006
0	5866	0.917411875544	0
0	5866	0.917411875544	0
0	5866	0.917411875544	0.005
0	5868	0.917411875544	0
0	5868	0.917411875544	0.075
0	5874	0.918761875544	0.005
0	5874	0.918761875544	1e-006
0	5874	0.918761875544	1e-006
0	5874	0.918761875544	1e-006
0	5886	0.919999999913	0
0	5886	0.919999999913	5e-006
0	5899	0.920748736179	0
0	5899	0.920748736179	0.05
0	5909	0.922098736179	5e-006
0	5909	0.922098736179	5e-006
0	5910	0.922098736179	1e-006
0	5910	0.922098736179	1e-006
0	5911	0.923333333246	0
0	5911	0.923333333246	5e-006
0	5924	0.924744132285	0
0	5924	0.924744132285	0.05
0	5934	0.926094132285	5e-006
0	5934	0.926094132285	5e-006
0	5935	0.926094132285	1e-006
0	5935	0.926094132285	1e-006
0	5936	0.926666666579	0
0	5936	0.926666666579	5e-006
0	5948	0.928297704312	0
0	5948	0.928297704312	0.05
0	5958	0.929647704312	5e-006
0	5958	0.929647704312	5e-006
0	5959	0.929647704312	1e-006
0	5959	0.929647704312	1e-006
0	5962	0.929999999912	0
0	5962	0.929999999912	5e-006
0	5971	0.931165846614	0
0	5971	0.931165846614	0.05
0	5978	0.932515846614	5e-006
0	5978	0.932515846614	5e-006
0	5979	0.932515846614	1e-006
0	5979	0.932515846614	1e-006
0	5988	0.933333333245	0
0	5988	0.933333333245	5e-006
0	5999	0.933527054276	0
0	5999	0.933527054276	0.05
0	6007	0.934877054276	5e-006
0	6007	0.934877054276	5e-006
0	6008	0.934877054276	1e-006
0	6008	0.934877054276	1e-006
0	6014	0.936666666578	0
0	6014	0.936666666578	5e-006
0	6046	0.943829061497	0
0	6046	0.943829061497	0
0	6046	0.943829061497	0.005
0	6048	0.943829061497	0
0	6048	0.943829061497	0.075
0	6055	0.945179061497	0.005
0	6055	0.945179061497	1e-006
0	6055	0.945179061497	1e-006
0	6055	0.945179061497	1e-006
0	6066	0.946666666577	0
0	6066	0.946666666577	5e-006
0	6079	0.947945112794	0
0	6079	0.947945112794	0.05
0	6089	0.949295112794	5e-006
0	6089	0.949295112794	5e-006
0	6090	0.949295112794	1e-006
0	6090	0.949295112794	1e-006
0	6091	0.94999999991	0
0	6091	0.94999999991	5e-006
0	6104	0.951356447538	0
0	6104	0.951356447538	0.05
0	6114	0.952706447538	5e-006
0	6114	0.952706447538	5e-006
0	6115	0.952706447538	1e-006
0	6115	0.952706447538	1e-006
0	6116	0.953333333243	0
0	6116	0.953333333243	5e-006
0	6128	0.954019786339	0
0	6128	0.954019786339	0.05
0	6138	0.955369786339	5e-006
0	6138	0.955369786339	5e-006
0	6139	0.955369786339	1e-006
0	6139	0.955369786339	1e-006
0	6142	0.956666666576	0
0	6142	0.956666666576	5e-006
0	6151	0.95732755738	0
0	6151	0.95732755738	0.05
0	6157	0.95867755738	5e-006
0	6157	0.95867755738	5e-006
0	6158	0.95867755738	1e-006
0	6158	0.95867755738	1e-006
0	6168	0.959999999909	0
0	6168	0.959999999909	5e-006
0	6179	0.961125782885	0
0	6179	0.961125782885	0.05
0	6187	0.962475782885	5e-006
0	6187	0.962475782885	5e-006
0	6188	0.962475782885	1e-006
0	6188	0.962475782885	1e-006
0	6194	0.963333333242	0
0	6194	0.963333333242	5e-006
0	6226	0.971468505243	0
0	6226	0.971468505243	0
0	6226	0.971468505243	0.005
0	6228	0.971468505243	0
0	6228	0.971468505243	0.075
0	6235	0.972818505243	0.005
0	6235	0.972818505243	1e-006
0	6235	0.972818505243	1e-006
0	6235	0.972818505243	1e-006
0	6246	0.973333333241	0
0	6246	0.973333333241	5e-006
0	6259	0.973749733745	0
0	6259	0.973749733745	0.05
0	6269	0.975099733745	5e-006
0	6269	0.975099733745	5e-006
0	6270	0.975099733745	1e-006
0	6270	0.975099733745	1e-006
0	6271	0.976666666574	0
0	6271	0.976666666574	5e-006
0	6284	0.977635572629	0
0	6284	0.977635572629	0.05
0	6294	0.978985572629	5e-006
0	6294	0.978985572629	5e-006
0	6295	0.978985572629	1e-006
0	6295	0.978985572629	1e-006
0	6296	0.979999999907	0
0	6296	0.979999999907	5e-006
0	6308	0.980522116654	0
0	6308	0.980522116654	0.05
0	6317	0.981872116654	5e-006
0	6317	0.981872116654	5e-006
0	6318	0.981872116654	1e-006
0	6318	0.981872116654	1e-006
0	6322	0.98333333324	0
0	6322	0.98333333324	5e-006
0	6331	0.984802940079	0
0	6331	0.984802940079	0.05
0	6338	0.986152940079	5e-006
0	6338	0.986152940079	5e-006
0	6339	0.986152940079	1e-006
0	6339	0.986152940079	1e-006
0	6348	0.986666666573	0
0	6348	0.986666666573	5e-006
0	6359	0.988275744785	0
0	6359	0.988275744785	0.05
0	6368	0.989625744785	5e-006
0	6368	0.989625744785	5e-006
0	6369	0.989625744785	1e-006
0	6369	0.989625744785	1e-006
0	6374	0.989999999906	0
0	6374	0.989999999906	5e-006
0	6406	0.997820885891	0
0	6406	0.997820885891	0
0	6406	0.997820885891	0.005
0	6408	0.997820885891	0
0	6408	0.997820885891	0.075
0	6414	0.999170885891	0.005
0	6414	0.999170885891	1e-006
0	6414	0.999170885891	1e-006
0	6414	0.999170885891	1e-006
0	6426	0.999999999905	0
0	6426	0.999999999905	5e-006
0	6439	1.000980848423	0
0	6439	1.000980848423	0.05
0	6449	1.002330848423	5e-006
0	6449	1.002330848423	5e-006
0	6450	1.002330848423	1e-006
0	6450	1.002330848423	1e-006
0	6451	1.003333333238	0
0	6451	1.003333333238	5e-006
0	6464	1.004542208303	0
0	6464	1.004542208303	0.05
0	6474	1.005892208303	5e-006
0	6474	1.005892208303	5e-006
0	6475	1.005892208303	1e-006
0	6475	1.005892208303	1e-006
0	6476	1.006666666571	0
0	6476	1.006666666571	5e-006
0	6488	1.007766200121	0
0	6488	1.007766200121	0.05
0	6497	1.009116200121	5e-006
0	6497	1.009116200121	5e-006
0	6498	1.009116200121	1e-006
0	6498	1.009116200121	1e-006
0	6502	1.009999999904	0
0	6502	1.009999999904	5e-006
0	6511	1.010835588448	0
0	6511	1.010835588448	0.05
0	6517	1.012185588448	5e-006
0	6517	1.012185588448	5e-006
0	6518	1.012185588448	1e-006
0	6518	1.012185588448	1e-006
0	6528	1.013333333237	0
0	6528	1.013333333237	5e-006
0	6539	1.014222061504	0
0	6539	1.014222061504	0.05
0	6547	1.015572061504	5e-006
0	6547	1.015572061504	5e-006
0	6548	1.015572061504	1e-006
0	6548	1.015572061504	1e-006
0	6554	1.01666666657	0
0	6554	1.01666666657	5e-006
0	6586	1.024926805969	0
0	6586	1.024926805969	0
0	6586	1.024926805969	0.005
0	6588	1.024926805969	0
0	6588	1.024926805969	0.075
0	6595	1.026276805969	0.005
0	6595	1.026276805969	1e-006
0	6595	1.026276805969	1e-006
0	6595	1.026276805969	1e-006
0	6606	1.026666666569	0
0	6606	1.026666666569	5e-006
0	6619	1.027050961653	0
0	6619	1.027050961653	0.05
0	6629	1.028400961653	5e-006
0	6629	1.028400961653	5e-006
0	6630	1.028400961653	1e-006
0	6630	1.028400961653	1e-006
0	6631	1.029999999902	0
0	6631	1.029999999902	5e-006
0	6644	1.031073434825	0
0	6644	1.031073434825	0.05
0	6654	1.032423434825	5e-006
0	6654	1.032423434825	5e-006
0	6655	1.032423434825	1e-006
0	6655	1.032423434825	1e-006
0	6656	1.033333333235	0
0	6656	1.033333333235	5e-006
0	6668	1.033991534915	0
0	6668	1.033991534915	0.05
0	6677	1.035341534915	5e-006
0	6677	1.035341534915	5e-006
0	6678	1.035341534915	1e-006
0	6678	1.035341534915	1e-006
0	6682	1.036666666568	0
0	6682	1.036666666568	5e-006
0	6691	1.037373139547	0
0	6691	1.037373139547	0.05
0	6698	1.038723139547	5e-006
0	6698	1.038723139547	5e-006
0	6699	1.038723139547	1e-006
0	6699	1.038723139547	1e-006
0	6708	1.039999999901	0
0	6708	1.039999999901	5e-006
0	6719	1.041031398684	0
0	6719	1.041031398684	0.05
0	6727	1.042381398684	5e-006
0	6727	1.042381398684	5e-006
0	6728	1.042381398684	1e-006
0	6728	1.042381398684	1e-006
0	6734	1.043333333234	0
0	6734	1.043333333234	5e-006
0	6766	1.051010655261	0
0	6766	1.051010655261	0
0	6766	1.051010655261	0.005
0	6768	1.051010655261	0
0	6768	1.051010655261	0.075
0	6774	1.052360655261	0.005
0	6774	1.052360655261	1e-006
0	6774	1.052360655261	1e-006
0	6774	1.052360655261	1e-006
0	6786	1.053333333233	0
0	6786	1.053333333233	5e-006
0	6799	1.054124852481	0
0	6799	1.054124852481	0.05
0	6809	1.055474852481	5e-006
0	6809	1.055474852481	5e-006
0	6810	1.055474852481	1e-006
0	6810	1.055474852481	1e-006
0	6811	1.056666666566	0
0	6811	1.056666666566	5e-006
0	6824	1.056698773163	0
0	6824	1.056698773163	0.05
0	6834	1.058048773163	5e-006
0	6834	1.058048773163	5e-006
0	6835	1.058048773163	1e-006
0	6835	1.058048773163	1e-006
0	6840	1.059999999899	0
0	6840	1.059999999899	5e-006
0	6852	1.060502710786	0
0	6852	1.060502710786	0.05
0	6861	1.061852710786	5e-006
0	6861	1.061852710786	5e-006
0	6862	1.061852710786	1e-006
0	6862	1.061852710786	1e-006
0	6866	1.063333333232	0
0	6866	1.063333333232	5e-006
0	6875	1.064526838694	0
0	6875	1.064526838694	0.05
0	6882	1.065876838694	5e-006
0	6882	1.065876838694	5e-006
0	6883	1.065876838694	1e-006
0	6883	1.065876838694	1e-006
0	6892	1.066666666565	0
0	6892	1.066666666565	5e-006
0	6903	1.067767006977	0
0	6903	1.067767006977	0.05
0	6912	1.069117006977	5e-006
0	6912	1.069117006977	5e-006
0	6913	1.069117006977	1e-006
0	6913	1.069117006977	1e-006
0	6918	1.069999999898	0
0	6918	1.069999999898	5e-006
0	6950	1.07714665157	0
0	6950	1.07714665157	0
0	6950	1.07714665157	0.005
0	6952	1.07714665157	0
0	6952	1.07714665157	0.075
0	6958	1.07849665157	0.005
0	6958	1.07849665157	1e-006
0	6958	1.07849665157	1e-006
0	6958	1.07849665157	1e-006
0	6970	1.079999999897	0
0	6970	1.079999999897	5e-006
0	6983	1.080483535959	0
0	6983	1.080483535959	0.05
0	6993	1.081833535959	5e-006
0	6993	1.081833535959	5e-006
0	6994	1.081833535959	1e-006
0	6994	1.081833535959	1e-006
0	6995	1.08333333323	0
0	6995	1.08333333323	5e-006
0	7008	1.083972554869	0
0	7008	1.083972554869	0.05
0	7018	1.085322554869	5e-006
0	7018	1.085322554869	5e-006
0	7019	1.085322554869	1e-006
0	7019	1.085322554869	1e-006
0	7020	1.086666666563	0
0	7020	1.086666666563	5e-006
0	7032	1.087696778468	0
0	7032	1.087696778468	0.05
0	7042	1.089046778468	5e-006
0	7042	1.089046778468	5e-006
0	7043	1.089046778468	1e-006
0	7043	1.089046778468	1e-006
0	7046	1.089999999896	0
0	7046	1.089999999896	5e-006
0	7055	1.091248664195	0
0	7055	1.091248664195	0.05
0	7062	1.092598664195	5e-006
0	7062	1.092598664195	5e-006
0	7063	1.092598664195	1e-006
0	7063	1.092598664195	1e-006
0	7072	1.093333333229	0
0	7072	1.093333333229	5e-006
0	7083	1.094047998908	0
0	7083	1.094047998908	0.05
0	7092	1.095397998908	5e-006
0	7092	1.095397998908	5e-006
0	7093	1.095397998908	1e-006
0	7093	1.095397998908	1e-006
0	7098	1.096666666562	0
0	7098	1.096666666562	5e-006
0	7130	1.104797420213	0
0	7130	1.104797420213	0
0	7130	1.104797420213	0.005
0	7132	1.104797420213	0
0	7132	1.104797420213	0.075
0	7139	1.106147420213	0.005
0	7139	1.106147420213	1e-006
0	7139	1.106147420213	1e-006
0	7139	1.106147420213	1e-006
0	7150	1.106666666561	0
0	7150	1.106666666561	5e-006
0	7163	1.106892530054	0
0	7163	1.106892530054	0.05
0	7173	1.108242530054	5e-006
0	7173	1.108242530054	5e-006
0	7174	1.108242530054	1e-006
0	7174	1.108242530054	1e-006
0	7175	1.109999999894	0
0	7175	1.109999999894	5e-006
0	7188	1.110171556756	0
0	7188	1.110171556756	0.05
0	7198	1.111521556756	5e-006
0	7198	1.111521556756	5e-006
0	7199	1.111521556756	1e-006
0	7199	1.111521556756	1e-006
0	7200	1.113333333227	0
0	7200	1.113333333227	5e-006
0	7212	1.113830556633	0
0	7212	1.113830556633	0.05
0	7221	1.115180556633	5e-006
0	7221	1.115180556633	5e-006
0	7222	1.115180556633	1e-006
0	7222	1.115180556633	1e-006
0	7226	1.11666666656	0
0	7226	1.11666666656	5e-006
0	7235	1.116820670944	0
0	7235	1.116820670944	0.05
0	7241	1.118170670944	5e-006
0	7241	1.118170670944	5e-006
0	7242	1.118170670944	1e-006
0	7242	1.118170670944	1e-006
0	7252	1.119999999893	0
0	7252	1.119999999893	5e-006
0	7263	1.120949992593	0
0	7263	1.120949992593	0.05
0	7272	1.122299992593	5e-006
0	7272	1.122299992593	5e-006
0	7273	1.122299992593	1e-006
0	7273	1.122299992593	1e-006
0	7278	1.123333333226	0
0	7278	1.123333333226	5e-006
0	7310	1.130590077666	0
0	7310	1.130590077666	0
0	7310	1.130590077666	0.005
0	7312	1.130590077666	0
0	7312	1.130590077666	0.075
0	7318	1.131940077666	0.005
0	7318	1.131940077666	1e-006
0	7318	1.131940077666	1e-006
0	7318	1.131940077666	1e-006
0	7330	1.133333333225	0
0	7330	1.133333333225	5e-006
0	7343	1.134318194542	0
0	7343	1.134318194542	0.05
0	7353	1.135668194542	5e-006
0	7353	1.135668194542	5e-006
0	7354	1.135668194542	1e-006
0	7354	1.135668194542	1e-006
0	7355	1.136666666558	0
0	7355	1.136666666558	5e-006
0	7368	1.137586478245	0
0	7368	1.137586478245	0.05
0	7378	1.138936478245	5e-006
0	7378	1.138936478245	5e-006
0	7379	1.138936478245	1e-006
0	7379	1.138936478245	1e-006
0	7380	1.139999999891	0
0	7380	1.139999999891	5e-006
0	7392	1.140957294844	0
0	7392	1.140957294844	0.05
0	7402	1.142307294844	5e-006
0	7402	1.142307294844	5e-006
0	7403	1.142307294844	1e-006
0	7403	1.142307294844	1e-006
0	7406	1.143333333224	0
0	7406	1.143333333224	5e-006
0	7415	1.143389422953	0
0	7415	1.143389422953	0.05
0	7421	1.144739422953	5e-006
0	7421	1.144739422953	5e-006
0	7422	1.144739422953	1e-006
0	7422	1.144739422953	1e-006
0	7432	1.146666666557	0
0	7432	1.146666666557	5e-006
0	7443	1.147755385764	0
0	7443	1.147755385764	0.05
0	7452	1.149105385764	5e-006
0	7452	1.149105385764	5e-006
0	7453	1.149105385764	1e-006
0	7453	1.149105385764	1e-006
0	7458	1.14999999989	0
0	7458	1.14999999989	5e-006
0	7490	1.158281602833	0
0	7490	1.158281602833	0
0	7490	1.158281602833	0.005
0	7492	1.158281602833	0
0	7492	1.158281602833	0.075
0	7499	1.159631602833	0.005
0	7499	1.159631602833	1e-006
0	7499	1.159631602833	1e-006
0	7499	1.159631602833	1e-006
0	7510	1.159999999889	0
0	7510	1.159999999889	5e-006
0	7523	1.161086912059	0
0	7523	1.161086912059	0.05
0	7533	1.162436912059	5e-006
0	7533	1.162436912059	5e-006
0	7534	1.162436912059	1e-006
0	7534	1.162436912059	1e-006
0	7535	1.163333333222	0
0	7535	1.163333333222	5e-006
0	7548	1.163868446557	0
0	7548	1.163868446557	0.05
0	7558	1.165218446557	5e-006
0	7558	1.165218446557	5e-006
0	7559	1.165218446557	1e-006
0	7559	1.165218446557	1e-006
0	7560	1.166666666555	0
0	7560	1.166666666555	5e-006
0	7572	1.167385783472	0
0	7572	1.167385783472	0.05
0	7581	1.168735783472	5e-006
0	7581	1.168735783472	5e-006
0	7582	1.168735783472	1e-006
0	7582	1.168735783472	1e-006
0	7586	1.169999999888	0
0	7586	1.169999999888	5e-006
0	7595	1.170368818932	0
0	7595	1.170368818932	0.05
0	7601	1.171718818932	5e-006
0	7601	1.171718818932	5e-006
0	7602	1.171718818932	1e-006
0	7602	1.171718818932	1e-006
0	7612	1.173333333221	0
0	7612	1.173333333221	5e-006
0	7623	1.174827628732	0
0	7623	1.174827628732	0.05
0	7632	1.176177628732	5e-006
0	7632	1.176177628732	5e-006
0	7633	1.176177628732	1e-006
0	7633	1.176177628732	1e-006
0	7638	1.176666666554	0
0	7638	1.176666666554	5e-006
0	7670	1.183568773058	0
0	7670	1.183568773058	0
0	7670	1.183568773058	0.005
0	7672	1.183568773058	0
0	7672	1.183568773058	0.075
0	7678	1.184918773058	0.005
0	7678	1.184918773058	1e-006
0	7678	1.184918773058	1e-006
0	7678	1.184918773058	1e-006
0	7690	1.186666666553	0
0	7690	1.186666666553	5e-006
0	7703	1.187279343051	0
0	7703	1.187279343051	0.05
0	7713	1.188629343051	5e-006
0	7713	1.188629343051	5e-006
0	7714	1.188629343051	1e-006
0	7714	1.188629343051	1e-006
0	7715	1.189999999886	0
0	7715	1.189999999886	5e-006
0	7728	1.190162217693	0
0	7728	1.190162217693	0.05
0	7738	1.191512217693	5e-006
0	7738	1.191512217693	5e-006
0	7739	1.191512217693	1e-006
0	7739	1.191512217693	1e-006
0	7740	1.193333333219	0
0	7740	1.193333333219	5e-006
0	7752	1.194059860944	0
0	7752	1.194059860944	0.05
0	7762	1.195409860944	5e-006
0	7762	1.195409860944	5e-006
0	7763	1.195409860944	1e-006
0	7763	1.195409860944	1e-006
0	7766	1.196666666552	0
0	7766	1.196666666552	5e-006
0	7775	1.19830678485	0
0	7775	1.19830678485	0.05
0	7782	1.19965678485	5e-006
0	7782	1.19965678485	5e-006
0	7783	1.19965678485	1e-006
0	7783	1.19965678485	1e-006
0	7792	1.199999999885	0
0	7792	1.199999999885	5e-006
0	7803	1.201486589996	0
0	7803	1.201486589996	0.05
0	7812	1.202836589996	5e-006
0	7812	1.202836589996	5e-006
0	7813	1.202836589996	1e-006
0	7813	1.202836589996	1e-006
0	7818	1.203333333218	0
0	7818	1.203333333218	5e-006
0	7850	1.210433901432	0
0	7850	1.210433901432	0
0	7850	1.210433901432	0.005
0	7852	1.210433901432	0
0	7852	1.210433901432	0.075
0	7858	1.211783901432	0.005
0	7858	1.211783901432	1e-006
0	7858	1.211783901432	1e-006
0	7858	1.211783901432	1e-006
0	7870	1.213333333217	0
0	7870	1.213333333217	5e-006
0	7883	1.214677063249	0
0	7883	1.214677063249	0.05
0	7893	1.216027063249	5e-006
0	7893	1.216027063249	5e-006
0	7894	1.216027063249	1e-006
0	7894	1.216027063249	1e-006
0	7895	1.21666666655	0
0	7895	1.21666666655	5e-006
0	7908	1.217561822008	0
0	7908	1.217561822008	0.05
0	7918	1.218911822008	5e-006
0	7918	1.218911822008	5e-006
0	7919	1.218911822008	1e-006
0	7919	1.218911822008	1e-006
0	7920	1.219999999883	0
0	7920	1.219999999883	5e-006
0	7932	1.221173233719	0
0	7932	1.221173233719	0.05
0	7942	1.222523233719	5e-006
0	7942	1.222523233719	5e-006
0	7943	1.222523233719	1e-006
0	7943	1.222523233719	1e-006
0	7946	1.223333333216	0
0	7946	1.223333333216	5e-006
0	7955	1.224079924745	0
0	7955	1.224079924745	0.05
0	7961	1.225429924745	5e-006
0	7961	1.225429924745	5e-006
0	7962	1.225429924745	1e-006
0	7962	1.225429924745	1e-006
0	7972	1.226666666549	0
0	7972	1.226666666549	5e-006
0	7983	1.226833762541	0
0	7983	1.226833762541	0.05
0	7991	1.228183762541	5e-006
0	7991	1.228183762541	5e-006
0	7992	1.228183762541	1e-006
0	7992	1.228183762541	1e-006
0	7998	1.229999999882	0
0	7998	1.229999999882	5e-006
0	8030	1.236832615023	0
0	8030	1.236832615023	0
0	8030	1.236832615023	0.005
0	8032	1.236832615023	0
0	8032	1.236832615023	0.075
0	8038	1.238182615023	0.005
0	8038	1.238182615023	1e-006
0	8038	1.238182615023	1e-006
0	8038	1.238182615023	1e-006
0	8050	1.239999999881	0
0	8050	1.239999999881	5e-006
0	8063	1.241532544282	0
0	8063	1.241532544282	0.05
0	8073	1.242882544282	5e-006
0	8073	1.242882544282	5e-006
0	8074	1.242882544282	1e-006
0	8074	1.242882544282	1e-006
0	8075	1.243333333214	0
0	8075	1.243333333214	5e-006
0	8088	1.243920637244	0
0	8088	1.243920637244	0.05
0	8098	1.245270637244	5e-006
0	8098	1.245270637244	5e-006
0	8099	1.245270637244	1e-006
0	8099	1.245270637244	1e-006
0	8100	1.246666666547	0
0	8100	1.246666666547	5e-006
0	8112	1.247857154904	0
0	8112	1.247857154904	0.05
0	8122	1.249207154904	5e-006
0	8122	1.249207154904	5e-006
0	8123	1.249207154904	1e-006
0	8123	1.249207154904	1e-006
0	8126	1.24999999988	0
0	8126	1.24999999988	5e-006
0	8135	1.250782129739	0
0	8135	1.250782129739	0.05
0	8141	1.252132129739	5e-006
0	8141	1.252132129739	5e-006
0	8142	1.252132129739	1e-006
0	8142	1.252132129739	1e-006
0	8152	1.253333333213	0
0	8152	1.253333333213	5e-006
0	8163	1.254998129399	0
0	8163	1.254998129399	0.05
0	8172	1.256348129399	5e-006
0	8172	1.256348129399	5e-006
0	8173	1.256348129399	1e-006
0	8173	1.256348129399	1e-006
0	8178	1.256666666546	0
0	8178	1.256666666546	5e-006
0	8210	1.264735233428	0
0	8210	1.264735233428	0
0	8210	1.264735233428	0.005
0	8212	1.264735233428	0
0	8212	1.264735233428	0.075
0	8218	1.266085233428	0.005
0	8218	1.266085233428	1e-006
0	8218	1.266085233428	1e-006
0	8218	1.266085233428	1e-006
0	8230	1.266666666545	0
0	8230	1.266666666545	5e-006
0	8243	1.266915820432	0
0	8243	1.266915820432	0.05
0	8253	1.268265820432	5e-006
0	8253	1.268265820432	5e-006
0	8254	1.268265820432	1e-006
0	8254	1.268265820432	1e-006
0	8255	1.269999999878	0
0	8255	1.269999999878	5e-006
[...]
57	27657	9.6	0
57	27657	9.7	0
57	27657	9.8	0
57	27657	9.9	0
57	27657	10	0
57	27657	10.1	0
57	27657	10.2	0
57	27657	10.3	0
57	27657	10.4	0
57	27657	10.5	0
57	27657	10.6	0
57	27657	10.7	0
57	27657	10.8	0
57	27657	10.9	0
57	27657	11	0
57	27657	11.1	0
57	27657	11.2	0
57	27657	11.3	0
57	27657	11.4	0
57	27657	11.5	0
57	27657	11.6	0
57	27657	11.7	0
57	27657	11.8	0
57	27657	11.9	0
57	27657	12	0
57	27657	12.1	0
57	27657	12.2	0
57	27657	12.3	0
57	27657	12.4	0
57	27657	12.5	0
57	27657	12.6	0
57	27657	12.7	0
57	27657	12.8	0
57	27657	12.9	0
57	27657	13	0
57	27657	13.1	0
57	27657	13.2	0
57	27657	13.3	0
57	27657	13.4	0
57	27657	13.5	0
57	27657	13.6	0
57	27657	13.7	0
57	27657	13.8	0
57	27657	13.9	0
57	27657	14	0
57	27657	14.1	0
57	27657	14.2	0
57	27657	14.3	0
57	27657	14.4	0
57	27657	14.5	0
57	27657	14.6	0
57	27657	14.7	0
57	27657	14.8	0
57	27657	14.9	0
57	27657	15	0
57	27657	15.1	0
57	27657	15.2	0
57	27657	15.3	0
57	27657	15.4	0
57	27657	15.5	0
57	27657	15.6	0
57	27657	15.7	0
57	27657	15.8	0
57	27657	15.9	0
57	27657	16	0
57	27657	16.1	0
57	27657	16.2	0
57	27657	16.3	0
57	27657	16.4	0
57	27657	16.5	0
57	27657	16.6	0
57	27657	16.7	0
57	27657	16.8	0
57	27657	16.9	0
57	27657	17	0
57	27657	17.1	0
57	27657	17.2	0
57	27657	17.3	0
57	27657	17.4	0
57	27657	17.5	0
57	27657	17.6	0
57	27657	17.7	0
57	27657	17.8	0
57	27657	17.9	0
57	27657	18	0
57	27657	18.1	0
57	27657	18.2	0
57	27657	18.3	0
57	27657	18.4	0
57	27657	18.5	0
57	27657	18.6	0
57	27657	18.7	0
57	27657	18.8	0
57	27657	18.9	0
57	27657	19	0
57	27657	19.1	0
57	27657	19.2	0
57	27657	19.3	0
57	27657	19.4	0
57	27657	19.5	0
57	27657	19.6	0
57	27657	19.7	0
57	27657	19.8	0
57	27657	19.9	0
57	27657	20	0
57	27657	20.1	0
57	27657	20.2	0
57	27657	20.3	0
57	27657	20.4	0
57	27657	20.5	0
57	27657	20.6	0
57	27657	20.7	0
57	27657	20.8	0
57	27657	20.9	0
57	27657	21	0
57	27657	21.1	0
57	27657	21.2	0
57	27657	21.3	0
57	27657	21.4	0
57	27657	21.5	0
57	27657	21.6	0
57	27657	21.7	0
57	27657	21.8	0
57	27657	21.9	0
57	27657	22	0
57	27657	22.1	0
57	27657	22.2	0
57	27657	22.3	0
57	27657	22.4	0
57	27657	22.5	0
57	27657	22.6	0
57	27657	22.7	0
57	27657	22.8	0
57	27657	22.9	0
57	27657	23	0
57	27657	23.1	0
57	27657	23.2	0
57	27657	23.3	0
57	27657	23.4	0
57	27657	23.5	0
57	27657	23.6	0
57	27657	23.7	0
57	27657	23.8	0
57	27657	23.9	0
57	27657	24	0
57	27657	24.1	0
57	27657	24.2	0
57	27657	24.3	0
57	27657	24.4	0
57	27657	24.5	0
57	27657	24.6	0
57	27657	24.7	0
57	27657	24.8	0
57	27657	24.9	0
57	27657	25	0
57	27657	25.1	0
57	27657	25.2	0
57	27657	25.3	0
57	27657	25.4	0
57	27657	25.5	0
57	27657	25.6	0
57	27657	25.7	0
57	27657	25.8	0
57	27657	25.9	0
57	27657	26	0
57	27657	26.001251291503	0
58	27657	0.1	0
58	27657	0.2	0
58	27657	0.3	0
58	27657	0.4	0
58	27657	0.5	0
58	27657	0.6	0
58	27657	0.7	0
58	27657	0.8	0
58	27657	0.9	0
58	27657	1	0
58	27657	1.1	0
58	27657	1.2	0
58	27657	1.3	0
58	27657	1.4	0
58	27657	1.5	0
58	27657	1.6	0
58	27657	1.7	0
58	27657	1.8	0
58	27657	1.9	0
58	27657	2	0
58	27657	2.1	0
58	27657	2.2	0
58	27657	2.3	0
58	27657	2.4	0
58	27657	2.5	0
58	27657	2.6	0
58	27657	2.7	0
58	27657	2.8	0
58	27657	2.9	0
58	27657	3	0
58	27657	3.1	0
58	27657	3.2	0
58	27657	3.3	0
58	27657	3.4	0
58	27657	3.5	0
58	27657	3.6	0
58	27657	3.7	0
58	27657	3.8	0
58	27657	3.9	0
58	27657	4	0
58	27657	4.1	0
58	27657	4.2	0
58	27657	4.3	0
58	27657	4.4	0
58	27657	4.5	0
58	27657	4.6	0
58	27657	4.7	0
58	27657	4.8	0
58	27657	4.9	0
58	27657	5	0
58	27657	5.1	0
58	27657	5.2	0
58	27657	5.3	0
58	27657	5.4	0
58	27657	5.5	0
58	27657	5.6	0
58	27657	5.7	0
58	27657	5.8	0
58	27657	5.9	0
58	27657	6	0
58	27657	6.1	0
58	27657	6.2	0
58	27657	6.3	0
58	27657	6.4	0
58	27657	6.5	0
58	27657	6.6	0
58	27657	6.7	0
58	27657	6.8	0
58	27657	6.9	0
58	27657	7	0
58	27657	7.1	0
58	27657	7.2	0
58	27657	7.3	0
58	27657	7.4	0
58	27657	7.5	0
58	27657	7.6	0
58	27657	7.7	0
58	27657	7.8	0
58	27657	7.9	0
58	27657	8	0
58	27657	8.1	0
58	27657	8.2	0
58	27657	8.3	0
58	27657	8.4	0
58	27657	8.5	0
58	27657	8.6	0
58	27657	8.7	0
58	27657	8.8	0
58	27657	8.9	0
58	27657	9	0
58	27657	9.1	0
58	27657	9.2	0
58	27657	9.3	0
58	27657	9.4	0
58	27657	9.5	0
58	27657	9.6	0
58	27657	9.7	0
58	27657	9.8	0
58	27657	9.9	0
58	27657	10	0
58	27657	10.1	0
58	27657	10.2	0
58	27657	10.3	0
58	27657	10.4	0
58	27657	10.5	0
58	27657	10.6	0
58	27657	10.7	0
58	27657	10.8	0
58	27657	10.9	0
58	27657	11	0
58	27657	11.1	0
58	27657	11.2	0
58	27657	11.3	0
58	27657	11.4	0
58	27657	11.5	0
58	27657	11.6	0
58	27657	11.7	0
58	27657	11.8	0
58	27657	11.9	0
58	27657	12	0
58	27657	12.1	0
58	27657	12.2	0
58	27657	12.3	0
58	27657	12.4	0
58	27657	12.5	0
58	27657	12.6	0
58	27657	12.7	0
58	27657	12.8	0
58	27657	12.9	0
58	27657	13	0
58	27657	13.1	0
58	27657	13.2	0
58	27657	13.3	0
58	27657	13.4	0
58	27657	13.5	0
58	27657	13.6	0
58	27657	13.7	0
58	27657	13.8	0
58	27657	13.9	0
58	27657	14	0
58	27657	14.1	0
58	27657	14.2	0
58	27657	14.3	0
58	27657	14.4	0
58	27657	14.5	0
58	27657	14.6	0
58	27657	14.7	0
58	27657	14.8	0
58	27657	14.9	0
58	27657	15	0
58	27657	15.1	0
58	27657	15.2	0
58	27657	15.3	0
58	27657	15.4	0
58	27657	15.5	0
58	27657	15.6	0
58	27657	15.7	0
58	27657	15.8	0
58	27657	15.9	0
58	27657	16	0
58	27657	16.1	0
58	27657	16.2	0
58	27657	16.3	0
58	27657	16.4	0
58	27657	16.5	0
58	27657	16.6	0
58	27657	16.7	0
58	27657	16.8	0
58	27657	16.9	0
58	27657	17	0
58	27657	17.1	0
58	27657	17.2	0
58	27657	17.3	0
58	27657	17.4	0
58	27657	17.5	0
58	27657	17.6	0
58	27657	17.7	0
58	27657	17.8	0
58	27657	17.9	0
58	27657	18	0
58	27657	18.1	0
58	27657	18.2	0
58	27657	18.3	0
58	27657	18.4	0
58	27657	18.5	0
58	27657	18.6	0
58	27657	18.7	0
58	27657	18.8	0
58	27657	18.9	0
58	27657	19	0
58	27657	19.1	0
58	27657	19.2	0
58	27657	19.3	0
58	27657	19.4	0
58	27657	19.5	0
58	27657	19.6	0
58	27657	19.7	0
58	27657	19.8	0
58	27657	19.9	0
58	27657	20	0
58	27657	20.1	0
58	27657	20.2	0
58	27657	20.3	0
58	27657	20.4	0
58	27657	20.5	0
58	27657	20.6	0
58	27657	20.7	0
58	27657	20.8	0
58	27657	20.9	0
58	27657	21	0
58	27657	21.1	0
58	27657	21.2	0
58	27657	21.3	0
58	27657	21.4	0
58	27657	21.5	0
58	27657	21.6	0
58	27657	21.7	0
58	27657	21.8	0
58	27657	21.9	0
58	27657	22	0
58	27657	22.1	0
58	27657	22.2	0
58	27657	22.3	0
58	27657	22.4	0
58	27657	22.5	0
58	27657	22.6	0
58	27657	22.7	0
58	27657	22.8	0
58	27657	22.9	0
58	27657	23	0
58	27657	23.1	0
58	27657	23.2	0
58	27657	23.3	0
58	27657	23.4	0
58	27657	23.5	0
58	27657	23.6	0
58	27657	23.7	0
58	27657	23.8	0
58	27657	23.9	0
58	27657	24	0
58	27657	24.1	0
58	27657	24.2	0
58	27657	24.3	0
58	27657	24.4	0
58	27657	24.5	0
58	27657	24.6	0
58	27657	24.7	0
58	27657	24.8	0
58	27657	24.9	0
58	27657	25	0
58	27657	25.1	0
58	27657	25.2	0
58	27657	25.3	0
58	27657	25.4	0
58	27657	25.5	0
58	27657	25.6	0
58	27657	25.7	0
58	27657	25.8	0
58	27657	25.9	0
58	27657	26	0
58	27657	26.001251291503	0
59	27657	0.1	0
59	27657	0.2	0
59	27657	0.3	0
59	27657	0.4	0
59	27657	0.5	0
59	27657	0.6	0
59	27657	0.7	0
59	27657	0.8	0
59	27657	0.9	0
59	27657	1	0
59	27657	1.1	0
59	27657	1.2	0
59	27657	1.3	0
59	27657	1.4	0
59	27657	1.5	0
59	27657	1.6	0
59	27657	1.7	0
59	27657	1.8	0
59	27657	1.9	0
59	27657	2	0
59	27657	2.1	0
59	27657	2.2	0
59	27657	2.3	0
59	27657	2.4	0
59	27657	2.5	0
59	27657	2.6	0
59	27657	2.7	0
59	27657	2.8	0
59	27657	2.9	0
59	27657	3	0
59	27657	3.1	0
59	27657	3.2	0
59	27657	3.3	0
59	27657	3.4	0
59	27657	3.5	0
59	27657	3.6	0
59	27657	3.7	0
59	27657	3.8	0
59	27657	3.9	0
59	27657	4	0
59	27657	4.1	0
59	27657	4.2	0
59	27657	4.3	0
59	27657	4.4	0
59	27657	4.5	0
59	27657	4.6	0
59	27657	4.7	0
59	27657	4.8	0
59	27657	4.9	0
59	27657	5	0
59	27657	5.1	0
59	27657	5.2	0
59	27657	5.3	0
59	27657	5.4	0
59	27657	5.5	0
59	27657	5.6	0
59	27657	5.7	0
59	27657	5.8	0
59	27657	5.9	0
59	27657	6	0
59	27657	6.1	0
59	27657	6.2	0
59	27657	6.3	0
59	27657	6.4	0
59	27657	6.5	0
59	27657	6.6	0
59	27657	6.7	0
59	27657	6.8	0
59	27657	6.9	0
59	27657	7	0
59	27657	7.1	0
59	27657	7.2	0
59	27657	7.3	0
59	27657	7.4	0
59	27657	7.5	0
59	27657	7.6	0
59	27657	7.7	0
59	27657	7.8	0
59	27657	7.9	0
59	27657	8	0
59	27657	8.1	0
59	27657	8.2	0
59	27657	8.3	0
59	27657	8.4	0
59	27657	8.5	0
59	27657	8.6	0
59	27657	8.7	0
59	27657	8.8	0
59	27657	8.9	0
59	27657	9	0
59	27657	9.1	0
59	27657	9.2	0
59	27657	9.3	0
59	27657	9.4	0
59	27657	9.5	0
59	27657	9.6	0
59	27657	9.7	0
59	27657	9.8	0
59	27657	9.9	0
59	27657	10	0
59	27657	10.1	0
59	27657	10.2	0
59	27657	10.3	0
59	27657	10.4	0
59	27657	10.5	0
59	27657	10.6	0
59	27657	10.7	0
59	27657	10.8	0
59	27657	10.9	0
59	27657	11	0
59	27657	11.1	0
59	27657	11.2	0
59	27657	11.3	0
59	27657	11.4	0
59	27657	11.5	0
59	27657	11.6	0
59	27657	11.7	0
59	27657	11.8	0
59	27657	11.9	0
59	27657	12	0
59	27657	12.1	0
59	27657	12.2	0
59	27657	12.3	0
59	27657	12.4	0
59	27657	12.5	0
59	27657	12.6	0
59	27657	12.7	0
59	27657	12.8	0
59	27657	12.9	0
59	27657	13	0
59	27657	13.1	0
59	27657	13.2	0
59	27657	13.3	0
59	27657	13.4	0
59	27657	13.5	0
59	27657	13.6	0
59	27657	13.7	0
59	27657	13.8	0
59	27657	13.9	0
59	27657	14	0
59	27657	14.1	0
59	27657	14.2	0
59	27657	14.3	0
59	27657	14.4	0
59	27657	14.5	0
59	27657	14.6	0
59	27657	14.7	0
59	27657	14.8	0
59	27657	14.9	0
59	27657	15	0
59	27657	15.1	0
59	27657	15.2	0
59	27657	15.3	0
59	27657	15.4	0
59	27657	15.5	0
59	27657	15.6	0
59	27657	15.7	0
59	27657	15.8	0
59	27657	15.9	0
59	27657	16	0
59	27657	16.1	0
59	27657	16.2	0
59	27657	16.3	0
59	27657	16.4	0
59	27657	16.5	0
59	27657	16.6	0
59	27657	16.7	0
59	27657	16.8	0
59	27657	16.9	0
59	27657	17	0
59	27657	17.1	0
59	27657	17.2	0
59	27657	17.3	0
59	27657	17.4	0
59	27657	17.5	0
59	27657	17.6	0
59	27657	17.7	0
59	27657	17.8	0
59	27657	17.9	0
59	27657	18	0
59	27657	18.1	0
59	27657	18.2	0
59	27657	18.3	0
59	27657	18.4	0
59	27657	18.5	0
59	27657	18.6	0
59	27657	18.7	0
59	27657	18.8	0
59	27657	18.9	0
59	27657	19	0
59	27657	19.1	0
59	27657	19.2	0
59	27657	19.3	0
59	27657	19.4	0
59	27657	19.5	0
59	27657	19.6	0
59	27657	19.7	0
59	27657	19.8	0
59	27657	19.9	0
59	27657	20	0
59	27657	20.1	0
59	27657	20.2	0
59	27657	20.3	0
59	27657	20.4	0
59	27657	20.5	0
59	27657	20.6	0
59	27657	20.7	0
59	27657	20.8	0
59	27657	20.9	0
59	27657	21	0
59	27657	21.1	0
59	27657	21.2	0
59	27657	21.3	0
59	27657	21.4	0
59	27657	21.5	0
59	27657	21.6	0
59	27657	21.7	0
59	27657	21.8	0
59	27657	21.9	0
59	27657	22	0
59	27657	22.1	0
59	27657	22.2	0
59	27657	22.3	0
59	27657	22.4	0
59	27657	22.5	0
59	27657	22.6	0
59	27657	22.7	0
59	27657	22.8	0
59	27657	22.9	0
59	27657	23	0
59	27657	23.1	0
59	27657	23.2	0
59	27657	23.3	0
59	27657	23.4	0
59	27657	23.5	0
59	27657	23.6	0
59	27657	23.7	0
59	27657	23.8	0
59	27657	23.9	0
59	27657	24	0
59	27657	24.1	0
59	27657	24.2	0
59	27657	24.3	0
59	27657	24.4	0
59	27657	24.5	0
59	27657	24.6	0
59	27657	24.7	0
59	27657	24.8	0
59	27657	24.9	0
59	27657	25	0
59	27657	25.1	0
59	27657	25.2	0
59	27657	25.3	0
59	27657	25.4	0
59	27657	25.5	0
59	27657	25.6	0
59	27657	25.7	0
59	27657	25.8	0
59	27657	25.9	0
59	27657	26	0
59	27657	26.001251291503	0
60	27657	0.1	0
60	27657	0.2	0
60	27657	0.3	0
60	27657	0.4	0
60	27657	0.5	0
60	27657	0.6	0
60	27657	0.7	0
60	27657	0.8	0
60	27657	0.9	0
60	27657	1	0
60	27657	1.1	0
60	27657	1.2	0
60	27657	1.3	0
60	27657	1.4	0
60	27657	1.5	0
60	27657	1.6	0
60	27657	1.7	0
60	27657	1.8	0
60	27657	1.9	0
60	27657	2	0
60	27657	2.1	0
60	27657	2.2	0
60	27657	2.3	0
60	27657	2.4	0
60	27657	2.5	0
60	27657	2.6	0
60	27657	2.7	0
60	27657	2.8	0
60	27657	2.9	0
60	27657	3	0
60	27657	3.1	0
60	27657	3.2	0
60	27657	3.3	0
60	27657	3.4	0
60	27657	3.5	0
60	27657	3.6	0
60	27657	3.7	0
60	27657	3.8	0
60	27657	3.9	0
60	27657	4	0
60	27657	4.1	0
60	27657	4.2	0
60	27657	4.3	0
60	27657	4.4	0
60	27657	4.5	0
60	27657	4.6	0
60	27657	4.7	0
60	27657	4.8	0
60	27657	4.9	0
60	27657	5	0
60	27657	5.1	0
60	27657	5.2	0
60	27657	5.3	0
60	27657	5.4	0
60	27657	5.5	0
60	27657	5.6	0
60	27657	5.7	0
60	27657	5.8	0
60	27657	5.9	0
60	27657	6	0
60	27657	6.1	0
60	27657	6.2	0
60	27657	6.3	0
60	27657	6.4	0
60	27657	6.5	0
60	27657	6.6	0
60	27657	6.7	0
60	27657	6.8	0
60	27657	6.9	0
60	27657	7	0
60	27657	7.1	0
60	27657	7.2	0
60	27657	7.3	0
60	27657	7.4	0
60	27657	7.5	0
60	27657	7.6	0
60	27657	7.7	0
60	27657	7.8	0
60	27657	7.9	0
60	27657	8	0
60	27657	8.1	0
60	27657	8.2	0
60	27657	8.3	0
60	27657	8.4	0
60	27657	8.5	0
60	27657	8.6	0
60	27657	8.7	0
60	27657	8.8	0
60	27657	8.9	0
60	27657	9	0
60	27657	9.1	0
60	27657	9.2	0
60	27657	9.3	0
60	27657	9.4	0
60	27657	9.5	0
60	27657	9.6	0
60	27657	9.7	0
60	27657	9.8	0
60	27657	9.9	0
60	27657	10	0
60	27657	10.1	0
60	27657	10.2	0
60	27657	10.3	0
60	27657	10.4	0
60	27657	10.5	0
60	27657	10.6	0
60	27657	10.7	0
60	27657	10.8	0
60	27657	10.9	0
60	27657	11	0
60	27657	11.1	0
60	27657	11.2	0
60	27657	11.3	0
60	27657	11.4	0
60	27657	11.5	0
60	27657	11.6	0
60	27657	11.7	0
60	27657	11.8	0
60	27657	11.9	0
60	27657	12	0
60	27657	12.1	0
60	27657	12.2	0
60	27657	12.3	0
60	27657	12.4	0
60	27657	12.5	0
60	27657	12.6	0
60	27657	12.7	0
60	27657	12.8	0
60	27657	12.9	0
60	27657	13	0
60	27657	13.1	0
60	27657	13.2	0
60	27657	13.3	0
60	27657	13.4	0
60	27657	13.5	0
60	27657	13.6	0
60	27657	13.7	0
60	27657	13.8	0
60	27657	13.9	0
60	27657	14	0
60	27657	14.1	0
60	27657	14.2	0
60	27657	14.3	0
60	27657	14.4	0
60	27657	14.5	0
60	27657	14.6	0
60	27657	14.7	0
60	27657	14.8	0
60	27657	14.9	0
60	27657	15	0
60	27657	15.1	0
60	27657	15.2	0
60	27657	15.3	0
60	27657	15.4	0
60	27657	15.5	0
60	27657	15.6	0
60	27657	15.7	0
60	27657	15.8	0
60	27657	15.9	0
60	27657	16	0
60	27657	16.1	0
60	27657	16.2	0
60	27657	16.3	0
60	27657	16.4	0
60	27657	16.5	0
60	27657	16.6	0
60	27657	16.7	0
60	27657	16.8	0
60	27657	16.9	0
60	27657	17	0
60	27657	17.1	0
60	27657	17.2	0
60	27657	17.3	0
60	27657	17.4	0
60	27657	17.5	0
60	27657	17.6	0
60	27657	17.7	0
60	27657	17.8	0
60	27657	17.9	0
60	27657	18	0
60	27657	18.1	0
60	27657	18.2	0
60	27657	18.3	0
60	27657	18.4	0
60	27657	18.5	0
60	27657	18.6	0
60	27657	18.7	0
60	27657	18.8	0
60	27657	18.9	0
60	27657	19	0
60	27657	19.1	0
60	27657	19.2	0
60	27657	19.3	0
60	27657	19.4	0
60	27657	19.5	0
60	27657	19.6	0
60	27657	19.7	0
60	27657	19.8	0
60	27657	19.9	0
60	27657	20	0
60	27657	20.1	0
60	27657	20.2	0
60	27657	20.3	0
60	27657	20.4	0
60	27657	20.5	0
60	27657	20.6	0
60	27657	20.7	0
60	27657	20.8	0
60	27657	20.9	0
60	27657	21	0
60	27657	21.1	0
60	27657	21.2	0
60	27657	21.3	0
60	27657	21.4	0
60	27657	21.5	0
60	27657	21.6	0
60	27657	21.7	0
60	27657	21.8	0
60	27657	21.9	0
60	27657	22	0
60	27657	22.1	0
60	27657	22.2	0
60	27657	22.3	0
60	27657	22.4	0
60	27657	22.5	0
60	27657	22.6	0
60	27657	22.7	0
60	27657	22.8	0
60	27657	22.9	0
60	27657	23	0
60	27657	23.1	0
60	27657	23.2	0
60	27657	23.3	0
60	27657	23.4	0
60	27657	23.5	0
60	27657	23.6	0
60	27657	23.7	0
60	27657	23.8	0
60	27657	23.9	0
60	27657	24	0
60	27657	24.1	0
60	27657	24.2	0
60	27657	24.3	0
60	27657	24.4	0
60	27657	24.5	0
60	27657	24.6	0
60	27657	24.7	0
60	27657	24.8	0
60	27657	24.9	0
60	27657	25	0
60	27657	25.1	0
60	27657	25.2	0
60	27657	25.3	0
60	27657	25.4	0
60	27657	25.5	0
60	27657	25.6	0
60	27657	25.7	0
60	27657	25.8	0
60	27657	25.9	0
60	27657	26	0
60	27657	26.001251291503	0
61	27657	0.1	0
61	27657	0.2	0
61	27657	0.3	0
61	27657	0.4	0
61	27657	0.5	0
61	27657	0.6	0
61	27657	0.7	0
61	27657	0.8	0
61	27657	0.9	0
61	27657	1	0
61	27657	1.1	0
61	27657	1.2	0
61	27657	1.3	0
61	27657	1.4	0
61	27657	1.5	0
61	27657	1.6	0
61	27657	1.7	0
61	27657	1.8	0
61	27657	1.9	0
61	27657	2	0
61	27657	2.1	0
61	27657	2.2	0
61	27657	2.3	0
61	27657	2.4	0
61	27657	2.5	0
61	27657	2.6	0
61	27657	2.7	0
61	27657	2.8	0
61	27657	2.9	0
61	27657	3	0
61	27657	3.1	0
61	27657	3.2	0
61	27657	3.3	0
61	27657	3.4	0
61	27657	3.5	0
61	27657	3.6	0
61	27657	3.7	0
61	27657	3.8	0
61	27657	3.9	0
61	27657	4	0
61	27657	4.1	0
61	27657	4.2	0
61	27657	4.3	0
61	27657	4.4	0
61	27657	4.5	0
61	27657	4.6	0
61	27657	4.7	0
61	27657	4.8	0
61	27657	4.9	0
61	27657	5	0
61	27657	5.1	0
61	27657	5.2	0
61	27657	5.3	0
61	27657	5.4	0
61	27657	5.5	0
61	27657	5.6	0
61	27657	5.7	0
61	27657	5.8	0
61	27657	5.9	0
61	27657	6	0
61	27657	6.1	0
61	27657	6.2	0
61	27657	6.3	0
61	27657	6.4	0
61	27657	6.5	0
61	27657	6.6	0
61	27657	6.7	0
61	27657	6.8	0
61	27657	6.9	0
61	27657	7	0
61	27657	7.1	0
61	27657	7.2	0
61	27657	7.3	0
61	27657	7.4	0
61	27657	7.5	0
61	27657	7.6	0
61	27657	7.7	0
61	27657	7.8	0
61	27657	7.9	0
61	27657	8	0
61	27657	8.1	0
61	27657	8.2	0
61	27657	8.3	0
61	27657	8.4	0
61	27657	8.5	0
61	27657	8.6	0
61	27657	8.7	0
61	27657	8.8	0
61	27657	8.9	0
61	27657	9	0
61	27657	9.1	0
61	27657	9.2	0
61	27657	9.3	0
61	27657	9.4	0
61	27657	9.5	0
61	27657	9.6	0
61	27657	9.7	0
61	27657	9.8	0
61	27657	9.9	0
61	27657	10	0
61	27657	10.1	0
61	27657	10.2	0
61	27657	10.3	0
61	27657	10.4	0
61	27657	10.5	0
61	27657	10.6	0
61	27657	10.7	0
61	27657	10.8	0
61	27657	10.9	0
61	27657	11	0
61	27657	11.1	0
61	27657	11.2	0
61	27657	11.3	0
61	27657	11.4	0
61	27657	11.5	0
61	27657	11.6	0
61	27657	11.7	0
61	27657	11.8	0
61	27657	11.9	0
61	27657	12	0
61	27657	12.1	0
61	27657	12.2	0
61	27657	12.3	0
61	27657	12.4	0
61	27657	12.5	0
61	27657	12.6	0
61	27657	12.7	0
61	27657	12.8	0
61	27657	12.9	0
61	27657	13	0
61	27657	13.1	0
61	27657	13.2	0
61	27657	13.3	0
61	27657	13.4	0
61	27657	13.5	0
61	27657	13.6	0
61	27657	13.7	0
61	27657	13.8	0
61	27657	13.9	0
61	27657	14	0
61	27657	14.1	0
61	27657	14.2	0
61	27657	14.3	0
61	27657	14.4	0
61	27657	14.5	0
61	27657	14.6	0
61	27657	14.7	0
61	27657	14.8	0
61	27657	14.9	0
61	27657	15	0
61	27657	15.1	0
61	27657	15.2	0
61	27657	15.3	0
61	27657	15.4	0
61	27657	15.5	0
61	27657	15.6	0
61	27657	15.7	0
61	27657	15.8	0
61	27657	15.9	0
61	27657	16	0
61	27657	16.1	0
61	27657	16.2	0
61	27657	16.3	0
61	27657	16.4	0
61	27657	16.5	0
61	27657	16.6	0
61	27657	16.7	0
61	27657	16.8	0
61	27657	16.9	0
61	27657	17	0
61	27657	17.1	0
61	27657	17.2	0
61	27657	17.3	0
61	27657	17.4	0
61	27657	17.5	0
61	27657	17.6	0
61	27657	17.7	0
61	27657	17.8	0
61	27657	17.9	0
61	27657	18	0
61	27657	18.1	0
61	27657	18.2	0
61	27657	18.3	0
61	27657	18.4	0
61	27657	18.5	0
61	27657	18.6	0
61	27657	18.7	0
61	27657	18.8	0
61	27657	18.9	0
61	27657	19	0
61	27657	19.1	0
61	27657	19.2	0
61	27657	19.3	0
61	27657	19.4	0
61	27657	19.5	0
61	27657	19.6	0
61	27657	19.7	0
61	27657	19.8	0
61	27657	19.9	0
61	27657	20	0
61	27657	20.1	0
61	27657	20.2	0
61	27657	20.3	0
61	27657	20.4	0
61	27657	20.5	0
61	27657	20.6	0
61	27657	20.7	0
61	27657	20.8	0
61	27657	20.9	0
61	27657	21	0
61	27657	21.1	0
61	27657	21.2	0
61	27657	21.3	0
61	27657	21.4	0
61	27657	21.5	0
61	27657	21.6	0
61	27657	21.7	0
61	27657	21.8	0
61	27657	21.9	0
61	27657	22	0
61	27657	22.1	0
61	27657	22.2	0
61	27657	22.3	0
61	27657	22.4	0
61	27657	22.5	0
61	27657	22.6	0
61	27657	22.7	0
61	27657	22.8	0
61	27657	22.9	0
61	27657	23	0
61	27657	23.1	0
61	27657	23.2	0
61	27657	23.3	0
61	27657	23.4	0
61	27657	23.5	0
61	27657	23.6	0
61	27657	23.7	0
61	27657	23.8	0
61	27657	23.9	0
61	27657	24	0
61	27657	24.1	0
61	27657	24.2	0
61	27657	24.3	0
61	27657	24.4	0
61	27657	24.5	0
61	27657	24.6	0
61	27657	24.7	0
61	27657	24.8	0
61	27657	24.9	0
61	27657	25	0
61	27657	25.1	0
61	27657	25.2	0
61	27657	25.3	0
61	27657	25.4	0
61	27657	25.5	0
61	27657	25.6	0
61	27657	25.7	0
61	27657	25.8	0
61	27657	25.9	0
61	27657	26	0
61	27657	26.001251291503	0

